@<TRIPOS>MOLECULE
*****
 46 50 0 0 0
SMALL
GASTEIGER

@<TRIPOS>ATOM
      1 C          23.6014   25.5167    1.6431 C.3     1  UNL11       0.1089
      2 C          23.3589   28.0943    1.4256 C.2     1  UNL11       0.2459
      3 O          23.6983   28.2488    2.8784 O.2     1  UNL11      -0.2701
      4 N          23.3105   26.7282    0.8079 N.am    1  UNL11      -0.2995
      5 H          23.0878   26.6268   -0.1457 H       1  UNL11       0.1498
      6 S          24.2176   31.6759   -3.9714 S.O2    1  UNL11       0.0590
      7 O          25.1789   30.6365   -4.4670 O.2     1  UNL11      -0.1542
      8 O          24.6450   32.2235   -5.3009 O.2     1  UNL11      -0.1542
      9 N          24.2179   30.6659   -2.8624 N.pl3   1  UNL11      -0.1911
     10 C          23.4474   30.6894   -1.5757 C.3     1  UNL11       0.0843
     11 C          23.7383   29.4779   -0.7405 C.3     1  UNL11       0.0221
     12 C          23.0680   29.3058    0.5903 C.3     1  UNL11       0.0547
     13 C          22.1068   30.3452    1.0859 C.3     1  UNL11       0.0058
     14 C          21.8158   31.5567    0.2507 C.3     1  UNL11       0.0147
     15 C          22.4861   31.7288   -1.0801 C.3     1  UNL11       0.0747
     16 N          22.0581   33.0014   -1.7489 N.pl3   1  UNL11      -0.3234
     17 C          21.0855   33.6603   -0.8160 C.3     1  UNL11       0.0716
     18 C          20.9390   32.7860    0.3940 C.3     1  UNL11      -0.0035
     19 C          22.4855   33.5490   -3.0784 C.3     1  UNL11       0.1334
     20 C          23.4466   32.9590   -4.0675 C.3     1  UNL11       0.1970
     21 C          25.1063   29.4748   -3.0673 C.3     1  UNL11       0.1388
     22 C          20.0641   33.0623    1.5807 C.3     1  UNL11       0.0279
     23 C          18.5857   33.2380    1.3978 C.3     1  UNL11       0.0051
     24 C          22.4774   24.7689    2.2969 C.3     1  UNL11       0.1839
     25 O          22.2059   23.3427    1.9198 O.3     1  UNL11      -0.3775
     26 H          22.8432   23.0597    1.2455 H       1  UNL11       0.2106
     27 C          21.6248   25.4474    3.3278 C.3     1  UNL11       0.1339
     28 N          20.1303   25.4152    3.2043 N.4     1  UNL11       0.2597
     29 H          19.7668   26.1238    3.8416 H       1  UNL11       0.2040
     30 H          19.8995   24.4420    3.4042 H       1  UNL11       0.2040
     31 C          19.4824   25.6568    1.8731 C.3     1  UNL11       0.1299
     32 C          18.9708   24.5000    1.0670 C.3     1  UNL11       0.0356
     33 C          18.5966   23.2176    1.7493 C.3     1  UNL11       0.0383
     34 C          18.0850   22.0606    0.9431 C.3     1  UNL11       0.1386
     35 C          17.9476   22.1861   -0.5453 C.3     1  UNL11       0.0369
     36 C          18.3218   23.4686   -1.2275 C.3     1  UNL11       0.0030
     37 C          18.8333   24.6255   -0.4214 C.3     1  UNL11       0.0016
     38 O          17.7109   20.7783    1.6254 O.2     1  UNL11      -0.4714
     39 C          17.7905   20.6727    3.1196 C.3     1  UNL11       0.2525
     40 C          25.0163   25.0529    1.8244 C.3     1  UNL11       0.0486
     41 C          25.8320   24.6495    0.6320 C.3     1  UNL11      -0.0204
     42 C          25.4776   23.4098   -0.1345 C.3     1  UNL11      -0.0042
     43 C          26.2933   23.0064   -1.3269 C.3     1  UNL11      -0.0003
     44 C          27.4633   23.8426   -1.7529 C.3     1  UNL11      -0.0000
     45 C          27.8178   25.0823   -0.9864 C.3     1  UNL11      -0.0003
     46 C          27.0021   25.4858    0.2060 C.3     1  UNL11      -0.0042
@<TRIPOS>UNITY_ATOM_ATTR
28 1
charge 1
@<TRIPOS>BOND
     1     6     7    2
     2     6     8    2
     3     6     9    1
     4     9    10    1
     5    10    11   ar
     6    11    12   ar
     7    12    13   ar
     8    13    14   ar
     9    14    15   ar
    10    15    16   ar
    11    16    17   ar
    12    17    18   ar
    13    18    22    1
    14    22    23    1
    15    16    19    1
    16    19    20    1
    17    12     2    1
    18     2     3    2
    19     2     4   am
    20     4     1    1
    21     1    24    1
    22    24    25    1
    23    24    27    1
    24    27    28    1
    25    28    31    1
    26    31    32    1
    27    32    33   ar
    28    33    34   ar
    29    34    38    1
    30    38    39    1
    31    34    35   ar
    32    35    36   ar
    33    36    37   ar
    34     1    40    1
    35    40    41    1
    36    41    42   ar
    37    42    43   ar
    38    43    44   ar
    39    44    45   ar
    40    45    46   ar
    41     9    21    1
    42    20     6    1
    43    37    32   ar
    44    46    41   ar
    45    15    10   ar
    46    18    14   ar
    47     4     5    1
    48    25    26    1
    49    28    29    1
    50    28    30    1
@<TRIPOS>MOLECULE
*****
 46 50 0 0 0
SMALL
GASTEIGER

@<TRIPOS>ATOM
      1 C          23.9850   25.5566    2.0229 C.3     1  UNL11       0.1089
      2 C          23.7805   27.4280    0.2323 C.2     1  UNL11       0.2459
      3 O          23.4290   26.4000   -0.8019 O.2     1  UNL11      -0.2701
      4 N          24.0585   27.0062    1.6447 N.am    1  UNL11      -0.2995
      5 H          24.2892   27.6809    2.3236 H       1  UNL11       0.1498
      6 S          26.1661   32.2807   -3.4354 S.O2    1  UNL11       0.0590
      7 O          27.0008   31.2717   -4.1669 O.2     1  UNL11      -0.1542
      8 O          26.9043   33.1203   -4.4355 O.2     1  UNL11      -0.1542
      9 N          25.7992   30.9922   -2.7608 N.pl3   1  UNL11      -0.1911
     10 C          24.8357   30.7680   -1.6333 C.3     1  UNL11       0.0843
     11 C          24.7622   29.3183   -1.2552 C.3     1  UNL11       0.0221
     12 C          23.8540   28.8777   -0.1458 C.3     1  UNL11       0.0547
     13 C          23.0193   29.8868    0.5857 C.3     1  UNL11       0.0058
     14 C          23.0928   31.3365    0.2077 C.3     1  UNL11       0.0147
     15 C          24.0010   31.7771   -0.9018 C.3     1  UNL11       0.0747
     16 N          23.9237   33.2595   -1.1173 N.pl3   1  UNL11      -0.3234
     17 C          22.9363   33.7793   -0.1147 C.3     1  UNL11       0.0716
     18 C          22.4335   32.6156    0.6870 C.3     1  UNL11      -0.0035
     19 C          24.6619   34.0991   -2.1174 C.3     1  UNL11       0.1334
     20 C          25.6599   33.6634   -3.1490 C.3     1  UNL11       0.1970
     21 C          26.4869   29.7656   -3.2828 C.3     1  UNL11       0.1388
     22 C          21.4303   32.6796    1.8003 C.3     1  UNL11       0.0279
     23 C          19.9796   32.9024    1.4908 C.3     1  UNL11       0.0051
     24 C          22.6701   24.9487    2.4124 C.3     1  UNL11       0.1839
     25 O          22.2930   23.5885    1.9049 O.3     1  UNL11      -0.3775
     26 H          23.0046   23.2444    1.3427 H       1  UNL11       0.2106
     27 C          21.7324   25.7012    3.3093 C.3     1  UNL11       0.1339
     28 N          20.2559   25.4486    3.2317 N.4     1  UNL11       0.2597
     29 H          19.8221   26.0108    3.9639 H       1  UNL11       0.2040
     30 H          20.1868   24.4345    3.3161 H       1  UNL11       0.2040
     31 C          19.5107   25.7405    1.9629 C.3     1  UNL11       0.1299
     32 C          18.9483   24.6142    1.1474 C.3     1  UNL11       0.0356
     33 C          18.4122   23.3900    1.8284 C.3     1  UNL11       0.0383
     34 C          17.8498   22.2636    1.0129 C.3     1  UNL11       0.1386
     35 C          17.8236   22.3615   -0.4837 C.3     1  UNL11       0.0369
     36 C          18.3598   23.5858   -1.1647 C.3     1  UNL11       0.0030
     37 C          18.9221   24.7121   -0.3492 C.3     1  UNL11       0.0016
     38 O          17.3136   21.0394    1.6939 O.2     1  UNL11      -0.4714
     39 C          17.8687   20.6159    3.0215 C.3     1  UNL11       0.2525
     40 C          25.2264   24.7146    2.0115 C.3     1  UNL11       0.0486
     41 C          25.9092   24.4026    0.7128 C.3     1  UNL11      -0.0204
     42 C          25.5113   23.1868   -0.0705 C.3     1  UNL11      -0.0042
     43 C          26.1940   22.8747   -1.3691 C.3     1  UNL11      -0.0003
     44 C          27.2745   23.7784   -1.8845 C.3     1  UNL11      -0.0000
     45 C          27.6723   24.9943   -1.1012 C.3     1  UNL11      -0.0003
     46 C          26.9897   25.3063    0.1974 C.3     1  UNL11      -0.0042
@<TRIPOS>UNITY_ATOM_ATTR
28 1
charge 1
@<TRIPOS>BOND
     1     6     7    2
     2     6     8    2
     3     6     9    1
     4     9    10    1
     5    10    11   ar
     6    11    12   ar
     7    12    13   ar
     8    13    14   ar
     9    14    15   ar
    10    15    16   ar
    11    16    17   ar
    12    17    18   ar
    13    18    22    1
    14    22    23    1
    15    16    19    1
    16    19    20    1
    17    12     2    1
    18     2     3    2
    19     2     4   am
    20     4     1    1
    21     1    24    1
    22    24    25    1
    23    24    27    1
    24    27    28    1
    25    28    31    1
    26    31    32    1
    27    32    33   ar
    28    33    34   ar
    29    34    38    1
    30    38    39    1
    31    34    35   ar
    32    35    36   ar
    33    36    37   ar
    34     1    40    1
    35    40    41    1
    36    41    42   ar
    37    42    43   ar
    38    43    44   ar
    39    44    45   ar
    40    45    46   ar
    41     9    21    1
    42    20     6    1
    43    37    32   ar
    44    46    41   ar
    45    15    10   ar
    46    18    14   ar
    47     4     5    1
    48    25    26    1
    49    28    29    1
    50    28    30    1
@<TRIPOS>MOLECULE
*****
 46 50 0 0 0
SMALL
GASTEIGER

@<TRIPOS>ATOM
      1 C          23.7126   25.5220    1.7048 C.3     1  UNL11       0.1089
      2 C          23.5644   28.1158    1.7105 C.2     1  UNL11       0.2459
      3 O          23.8968   28.1316    3.1731 O.2     1  UNL11      -0.2701
      4 N          23.4723   26.8110    0.9763 N.am    1  UNL11      -0.2995
      5 H          23.2541   26.8006    0.0164 H       1  UNL11       0.1498
      6 S          25.5713   32.9475   -2.2036 S.O2    1  UNL11       0.0590
      7 O          26.9026   32.2643   -2.3075 O.2     1  UNL11      -0.1542
      8 O          26.3462   33.8620   -3.1053 O.2     1  UNL11      -0.1542
      9 N          25.3887   31.7289   -1.3482 N.pl3   1  UNL11      -0.1911
     10 C          24.1747   31.2996   -0.5788 C.3     1  UNL11       0.0843
     11 C          24.4150   30.0106    0.1496 C.3     1  UNL11       0.0221
     12 C          23.3241   29.4048    0.9820 C.3     1  UNL11       0.0547
     13 C          21.9928   30.0881    1.0859 C.3     1  UNL11       0.0058
     14 C          21.7524   31.3771    0.3574 C.3     1  UNL11       0.0147
     15 C          22.8433   31.9828   -0.4749 C.3     1  UNL11       0.0747
     16 N          22.3973   33.2641   -1.1148 N.pl3   1  UNL11      -0.3234
     17 C          20.9791   33.4814   -0.6768 C.3     1  UNL11       0.0716
     18 C          20.5889   32.3395    0.2140 C.3     1  UNL11      -0.0035
     19 C          23.1722   34.1787   -2.0164 C.3     1  UNL11       0.1334
     20 C          24.5848   34.0377   -2.5010 C.3     1  UNL11       0.1970
     21 C          26.5773   30.8194   -1.2489 C.3     1  UNL11       0.1388
     22 C          19.2558   32.1533    0.8760 C.3     1  UNL11       0.0279
     23 C          18.5421   33.3316    1.4696 C.3     1  UNL11       0.0051
     24 C          22.5582   24.7676    2.2951 C.3     1  UNL11       0.1839
     25 O          22.2672   23.3674    1.8425 O.3     1  UNL11      -0.3775
     26 H          22.9147   23.1038    1.1701 H       1  UNL11       0.2106
     27 C          21.6950   25.4134    3.3380 C.3     1  UNL11       0.1339
     28 N          20.5003   26.2220    2.9271 N.4     1  UNL11       0.2597
     29 H          20.7483   27.2024    3.0606 H       1  UNL11       0.2040
     30 H          19.7510   25.8447    3.5072 H       1  UNL11       0.2040
     31 C          19.9541   26.0991    1.5354 C.3     1  UNL11       0.1299
     32 C          19.0231   24.9743    1.1918 C.3     1  UNL11       0.0356
     33 C          19.1207   24.3020   -0.1455 C.3     1  UNL11       0.0383
     34 C          18.1897   23.1772   -0.4892 C.3     1  UNL11       0.1386
     35 C          17.1612   22.7247    0.5045 C.3     1  UNL11       0.0369
     36 C          17.0637   23.3970    1.8418 C.3     1  UNL11       0.0030
     37 C          17.9946   24.5218    2.1855 C.3     1  UNL11       0.0016
     38 O          18.2872   22.5049   -1.8266 O.2     1  UNL11      -0.4714
     39 C          18.4159   21.0127   -1.9083 C.3     1  UNL11       0.2525
     40 C          25.1072   24.9873    1.8429 C.3     1  UNL11       0.0486
     41 C          25.9289   24.7103    0.6188 C.3     1  UNL11      -0.0204
     42 C          27.0062   25.6690    0.2060 C.3     1  UNL11      -0.0042
     43 C          27.8279   25.3922   -1.0180 C.3     1  UNL11      -0.0003
     44 C          27.5723   24.1566   -1.8291 C.3     1  UNL11      -0.0000
     45 C          26.4950   23.1979   -1.4163 C.3     1  UNL11      -0.0003
     46 C          25.6733   23.4748   -0.1924 C.3     1  UNL11      -0.0042
@<TRIPOS>UNITY_ATOM_ATTR
28 1
charge 1
@<TRIPOS>BOND
     1     6     7    2
     2     6     8    2
     3     6     9    1
     4     9    10    1
     5    10    11   ar
     6    11    12   ar
     7    12    13   ar
     8    13    14   ar
     9    14    15   ar
    10    15    16   ar
    11    16    17   ar
    12    17    18   ar
    13    18    22    1
    14    22    23    1
    15    16    19    1
    16    19    20    1
    17    12     2    1
    18     2     3    2
    19     2     4   am
    20     4     1    1
    21     1    24    1
    22    24    25    1
    23    24    27    1
    24    27    28    1
    25    28    31    1
    26    31    32    1
    27    32    33   ar
    28    33    34   ar
    29    34    38    1
    30    38    39    1
    31    34    35   ar
    32    35    36   ar
    33    36    37   ar
    34     1    40    1
    35    40    41    1
    36    41    42   ar
    37    42    43   ar
    38    43    44   ar
    39    44    45   ar
    40    45    46   ar
    41     9    21    1
    42    20     6    1
    43    37    32   ar
    44    46    41   ar
    45    15    10   ar
    46    18    14   ar
    47     4     5    1
    48    25    26    1
    49    28    29    1
    50    28    30    1
@<TRIPOS>MOLECULE
*****
 46 50 0 0 0
SMALL
GASTEIGER

@<TRIPOS>ATOM
      1 C          23.7243   25.2528    1.5441 C.3     1  UNL11       0.1089
      2 C          24.3143   27.7703    1.2911 C.2     1  UNL11       0.2459
      3 O          24.9910   27.7463    2.6295 O.2     1  UNL11      -0.2701
      4 N          23.6810   26.5236    0.7483 N.am    1  UNL11      -0.2995
      5 H          23.2369   26.5394   -0.1301 H       1  UNL11       0.1498
      6 S          21.4368   33.3958   -0.3724 S.O2    1  UNL11       0.0590
      7 O          20.3356   33.0792    0.5956 O.2     1  UNL11      -0.1542
      8 O          20.5232   34.5777   -0.5080 O.2     1  UNL11      -0.1542
      9 N          21.8604   32.0730    0.1939 N.pl3   1  UNL11      -0.1911
     10 C          23.0832   31.2660   -0.1282 C.3     1  UNL11       0.0843
     11 C          23.1265   29.9953    0.6675 C.3     1  UNL11       0.0221
     12 C          24.2710   29.0411    0.4952 C.3     1  UNL11       0.0547
     13 C          25.3721   29.3577   -0.4729 C.3     1  UNL11       0.0058
     14 C          25.3288   30.6285   -1.2686 C.3     1  UNL11       0.0147
     15 C          24.1843   31.5826   -1.0963 C.3     1  UNL11       0.0747
     16 N          24.3347   32.7843   -1.9814 N.pl3   1  UNL11      -0.3234
     17 C          25.6137   32.5901   -2.7407 C.3     1  UNL11       0.0716
     18 C          26.2153   31.2855   -2.3093 C.3     1  UNL11      -0.0035
     19 C          23.4211   33.9663   -2.1170 C.3     1  UNL11       0.1334
     20 C          22.1314   34.2383   -1.4009 C.3     1  UNL11       0.1970
     21 C          20.9395   31.4785    1.2178 C.3     1  UNL11       0.1388
     22 C          27.4987   30.6964   -2.8150 C.3     1  UNL11       0.0279
     23 C          27.4714   29.6471   -3.8867 C.3     1  UNL11       0.0051
     24 C          22.4638   24.6949    2.1356 C.3     1  UNL11       0.1839
     25 O          22.0794   23.2689    1.8733 O.3     1  UNL11      -0.3775
     26 H          22.7486   22.8524    1.3080 H       1  UNL11       0.2106
     27 C          21.5877   25.5630    2.9893 C.3     1  UNL11       0.1339
     28 N          20.5418   26.4294    2.3527 N.4     1  UNL11       0.2597
     29 H          20.8557   26.6188    1.4008 H       1  UNL11       0.2040
     30 H          20.4742   27.2224    2.9906 H       1  UNL11       0.2040
     31 C          19.1255   25.9452    2.2532 C.3     1  UNL11       0.1299
     32 C          18.7942   24.7696    1.3825 C.3     1  UNL11       0.0356
     33 C          18.2984   23.4955    1.9995 C.3     1  UNL11       0.0383
     34 C          17.9670   22.3198    1.1287 C.3     1  UNL11       0.1386
     35 C          18.1316   22.4184   -0.3590 C.3     1  UNL11       0.0369
     36 C          18.6274   23.6926   -0.9759 C.3     1  UNL11       0.0030
     37 C          18.9587   24.8682   -0.1052 C.3     1  UNL11       0.0016
     38 O          17.4712   21.0457    1.7457 O.2     1  UNL11      -0.4714
     39 C          17.8520   20.6964    3.1539 C.3     1  UNL11       0.2525
     40 C          25.0282   24.5399    1.7484 C.3     1  UNL11       0.0486
     41 C          26.0009   24.4156    0.6132 C.3     1  UNL11      -0.0204
     42 C          25.7580   23.4135   -0.4762 C.3     1  UNL11      -0.0042
     43 C          26.7306   23.2892   -1.6113 C.3     1  UNL11      -0.0003
     44 C          27.9461   24.1668   -1.6570 C.3     1  UNL11      -0.0000
     45 C          28.1890   25.1689   -0.5675 C.3     1  UNL11      -0.0003
     46 C          27.2164   25.2932    0.5676 C.3     1  UNL11      -0.0042
@<TRIPOS>UNITY_ATOM_ATTR
28 1
charge 1
@<TRIPOS>BOND
     1     6     7    2
     2     6     8    2
     3     6     9    1
     4     9    10    1
     5    10    11   ar
     6    11    12   ar
     7    12    13   ar
     8    13    14   ar
     9    14    15   ar
    10    15    16   ar
    11    16    17   ar
    12    17    18   ar
    13    18    22    1
    14    22    23    1
    15    16    19    1
    16    19    20    1
    17    12     2    1
    18     2     3    2
    19     2     4   am
    20     4     1    1
    21     1    24    1
    22    24    25    1
    23    24    27    1
    24    27    28    1
    25    28    31    1
    26    31    32    1
    27    32    33   ar
    28    33    34   ar
    29    34    38    1
    30    38    39    1
    31    34    35   ar
    32    35    36   ar
    33    36    37   ar
    34     1    40    1
    35    40    41    1
    36    41    42   ar
    37    42    43   ar
    38    43    44   ar
    39    44    45   ar
    40    45    46   ar
    41     9    21    1
    42    20     6    1
    43    37    32   ar
    44    46    41   ar
    45    15    10   ar
    46    18    14   ar
    47     4     5    1
    48    25    26    1
    49    28    29    1
    50    28    30    1
@<TRIPOS>MOLECULE
*****
 46 50 0 0 0
SMALL
GASTEIGER

@<TRIPOS>ATOM
      1 C          20.7314   19.7143    0.5186 C.3     1  UNL11       0.1089
      2 C          23.1876   19.8995   -0.3077 C.2     1  UNL11       0.2459
      3 O          23.4440   18.4905    0.1383 O.2     1  UNL11      -0.2701
      4 N          21.8314   20.5114   -0.1175 N.am    1  UNL11      -0.2995
      5 H          21.6631   21.4362   -0.4102 H       1  UNL11       0.1498
      6 S          27.4310   24.8678   -0.2593 S.O2    1  UNL11       0.0590
      7 O          26.8980   25.2652    1.0853 O.2     1  UNL11      -0.1542
      8 O          28.2506   26.0773    0.0805 O.2     1  UNL11      -0.1542
      9 N          26.3743   23.8351   -0.0008 N.pl3   1  UNL11      -0.1911
     10 C          25.9543   22.6883   -0.8717 C.3     1  UNL11       0.0843
     11 C          24.8544   21.8912   -0.2355 C.3     1  UNL11       0.0221
     12 C          24.2876   20.6967   -0.9439 C.3     1  UNL11       0.0547
     13 C          24.8206   20.2993   -2.2885 C.3     1  UNL11       0.0058
     14 C          25.9205   21.0965   -2.9247 C.3     1  UNL11       0.0147
     15 C          26.4873   22.2910   -2.2163 C.3     1  UNL11       0.0747
     16 N          27.5721   22.9423   -3.0220 N.pl3   1  UNL11      -0.3234
     17 C          27.7004   22.1385   -4.2820 C.3     1  UNL11       0.0716
     18 C          26.7010   21.0215   -4.2231 C.3     1  UNL11      -0.0035
     19 C          28.3917   24.1518   -2.6822 C.3     1  UNL11       0.1334
     20 C          28.3289   25.0087   -1.4526 C.3     1  UNL11       0.1970
     21 C          25.6404   23.9666    1.3008 C.3     1  UNL11       0.1388
     22 C          26.4854   19.9749   -5.2757 C.3     1  UNL11       0.0279
     23 C          25.1899   19.9259   -6.0304 C.3     1  UNL11       0.0051
     24 C          20.7067   19.5244    2.0064 C.3     1  UNL11       0.1839
     25 O          21.9887   19.5340    2.7851 O.3     1  UNL11      -0.3775
     26 H          22.7337   19.6731    2.1797 H       1  UNL11       0.2106
     27 C          19.4000   19.3250    2.7154 C.3     1  UNL11       0.1339
     28 N          18.5393   20.5075    3.0483 N.4     1  UNL11       0.2597
     29 H          19.1625   21.2374    3.3935 H       1  UNL11       0.2040
     30 H          17.8577   20.1244    3.7033 H       1  UNL11       0.2040
     31 C          17.6835   21.1345    1.9878 C.3     1  UNL11       0.1299
     32 C          18.1108   22.4190    1.3416 C.3     1  UNL11       0.0356
     33 C          18.5229   23.5848    2.1906 C.3     1  UNL11       0.0383
     34 C          18.9502   24.8693    1.5444 C.3     1  UNL11       0.1386
     35 C          18.9654   24.9879    0.0492 C.3     1  UNL11       0.0369
     36 C          18.5532   23.8220   -0.7998 C.3     1  UNL11       0.0030
     37 C          18.1259   22.5375   -0.1536 C.3     1  UNL11       0.0016
     38 O          19.3624   26.0352    2.3934 O.2     1  UNL11      -0.4714
     39 C          20.7051   26.6726    2.1914 C.3     1  UNL11       0.2525
     40 C          19.6563   19.1070   -0.3329 C.3     1  UNL11       0.0486
     41 C          19.9275   18.7966   -1.7752 C.3     1  UNL11      -0.0204
     42 C          19.2738   19.6095   -2.8531 C.3     1  UNL11      -0.0042
     43 C          19.5450   19.2992   -4.2954 C.3     1  UNL11      -0.0003
     44 C          20.4700   18.1760   -4.6597 C.3     1  UNL11      -0.0000
     45 C          21.1237   17.3631   -3.5818 C.3     1  UNL11      -0.0003
     46 C          20.8525   17.6734   -2.1396 C.3     1  UNL11      -0.0042
@<TRIPOS>UNITY_ATOM_ATTR
28 1
charge 1
@<TRIPOS>BOND
     1     6     7    2
     2     6     8    2
     3     6     9    1
     4     9    10    1
     5    10    11   ar
     6    11    12   ar
     7    12    13   ar
     8    13    14   ar
     9    14    15   ar
    10    15    16   ar
    11    16    17   ar
    12    17    18   ar
    13    18    22    1
    14    22    23    1
    15    16    19    1
    16    19    20    1
    17    12     2    1
    18     2     3    2
    19     2     4   am
    20     4     1    1
    21     1    24    1
    22    24    25    1
    23    24    27    1
    24    27    28    1
    25    28    31    1
    26    31    32    1
    27    32    33   ar
    28    33    34   ar
    29    34    38    1
    30    38    39    1
    31    34    35   ar
    32    35    36   ar
    33    36    37   ar
    34     1    40    1
    35    40    41    1
    36    41    42   ar
    37    42    43   ar
    38    43    44   ar
    39    44    45   ar
    40    45    46   ar
    41     9    21    1
    42    20     6    1
    43    37    32   ar
    44    46    41   ar
    45    15    10   ar
    46    18    14   ar
    47     4     5    1
    48    25    26    1
    49    28    29    1
    50    28    30    1
@<TRIPOS>MOLECULE
*****
 46 50 0 0 0
SMALL
GASTEIGER

@<TRIPOS>ATOM
      1 C          23.3263   25.4559    1.4076 C.3     1  UNL11       0.1089
      2 C          23.2413   28.0491    1.2745 C.2     1  UNL11       0.2459
      3 O          23.6872   28.1372    2.7039 O.2     1  UNL11      -0.2701
      4 N          23.0608   26.7085    0.6263 N.am    1  UNL11      -0.2995
      5 H          22.7681   26.6507   -0.3119 H       1  UNL11       0.1498
      6 S          24.0278   31.7611   -4.0449 S.O2    1  UNL11       0.0590
      7 O          24.9062   30.6901   -4.6205 O.2     1  UNL11      -0.1542
      8 O          24.4187   32.3301   -5.3765 O.2     1  UNL11      -0.1542
      9 N          24.0276   30.7156   -2.9693 N.pl3   1  UNL11      -0.1911
     10 C          23.3232   30.7359   -1.6452 C.3     1  UNL11       0.0843
     11 C          23.5887   29.4833   -0.8639 C.3     1  UNL11       0.0221
     12 C          22.9758   29.3018    0.4931 C.3     1  UNL11       0.0547
     13 C          22.0974   30.3728    1.0687 C.3     1  UNL11       0.0058
     14 C          21.8319   31.6254    0.2874 C.3     1  UNL11       0.0147
     15 C          22.4448   31.8069   -1.0695 C.3     1  UNL11       0.0747
     16 N          22.0540   33.1221   -1.6759 N.pl3   1  UNL11      -0.3234
     17 C          21.1651   33.7991   -0.6750 C.3     1  UNL11       0.0716
     18 C          21.0308   32.8933    0.5131 C.3     1  UNL11      -0.0035
     19 C          22.4449   33.6911   -3.0075 C.3     1  UNL11       0.1334
     20 C          23.3234   33.0854   -4.0618 C.3     1  UNL11       0.1970
     21 C          24.8394   29.4871   -3.2558 C.3     1  UNL11       0.1388
     22 C          20.2310   33.1749    1.7505 C.3     1  UNL11       0.0279
     23 C          18.7337   33.2284    1.6797 C.3     1  UNL11       0.0051
     24 C          24.6426   24.7501    1.2689 C.3     1  UNL11       0.1839
     25 O          24.9196   23.9109    0.0569 O.3     1  UNL11      -0.3775
     26 H          24.1500   23.9314   -0.5333 H       1  UNL11       0.2106
     27 C          25.6820   24.8837    2.3421 C.3     1  UNL11       0.1339
     28 N          26.8984   25.7292    2.1070 N.4     1  UNL11       0.2597
     29 H          27.1979   25.5540    1.1478 H       1  UNL11       0.2040
     30 H          27.5304   25.4440    2.8551 H       1  UNL11       0.2040
     31 C          26.8200   27.2182    2.2709 C.3     1  UNL11       0.1299
     32 C          27.0410   28.1155    1.0895 C.3     1  UNL11       0.0356
     33 C          27.3536   29.5675    1.2986 C.3     1  UNL11       0.0383
     34 C          27.5747   30.4649    0.1171 C.3     1  UNL11       0.1386
     35 C          27.4831   29.9102   -1.2736 C.3     1  UNL11       0.0369
     36 C          27.1705   28.4580   -1.4827 C.3     1  UNL11       0.0030
     37 C          26.9495   27.5607   -0.3012 C.3     1  UNL11       0.0016
     38 O          27.8873   31.9170    0.3262 O.2     1  UNL11      -0.4714
     39 C          28.0920   32.8179   -0.8555 C.3     1  UNL11       0.2525
     40 C          22.2754   24.9089    2.3277 C.3     1  UNL11       0.0486
     41 C          20.9002   24.6155    1.8053 C.3     1  UNL11      -0.0204
     42 C          20.5264   23.2140    1.4229 C.3     1  UNL11      -0.0042
     43 C          19.1513   22.9206    0.9006 C.3     1  UNL11      -0.0003
     44 C          18.1500   24.0286    0.7606 C.3     1  UNL11      -0.0000
     45 C          18.5238   25.4300    1.1430 C.3     1  UNL11      -0.0003
     46 C          19.8989   25.7235    1.6653 C.3     1  UNL11      -0.0042
@<TRIPOS>UNITY_ATOM_ATTR
28 1
charge 1
@<TRIPOS>BOND
     1     6     7    2
     2     6     8    2
     3     6     9    1
     4     9    10    1
     5    10    11   ar
     6    11    12   ar
     7    12    13   ar
     8    13    14   ar
     9    14    15   ar
    10    15    16   ar
    11    16    17   ar
    12    17    18   ar
    13    18    22    1
    14    22    23    1
    15    16    19    1
    16    19    20    1
    17    12     2    1
    18     2     3    2
    19     2     4   am
    20     4     1    1
    21     1    24    1
    22    24    25    1
    23    24    27    1
    24    27    28    1
    25    28    31    1
    26    31    32    1
    27    32    33   ar
    28    33    34   ar
    29    34    38    1
    30    38    39    1
    31    34    35   ar
    32    35    36   ar
    33    36    37   ar
    34     1    40    1
    35    40    41    1
    36    41    42   ar
    37    42    43   ar
    38    43    44   ar
    39    44    45   ar
    40    45    46   ar
    41     9    21    1
    42    20     6    1
    43    37    32   ar
    44    46    41   ar
    45    15    10   ar
    46    18    14   ar
    47     4     5    1
    48    25    26    1
    49    28    29    1
    50    28    30    1
@<TRIPOS>MOLECULE
*****
 46 50 0 0 0
SMALL
GASTEIGER

@<TRIPOS>ATOM
      1 C          21.2913   26.3328    1.9666 C.3     1  UNL11       0.1089
      2 C          22.8581   28.3648    1.5589 C.2     1  UNL11       0.2459
      3 O          23.3742   28.2486    2.9625 O.2     1  UNL11      -0.2701
      4 N          21.8167   27.4069    1.0610 N.am    1  UNL11      -0.2995
      5 H          21.4780   27.4832    0.1397 H       1  UNL11       0.1498
      6 S          22.6566   34.4343   -0.8521 S.O2    1  UNL11       0.0590
      7 O          21.4794   34.7111    0.0354 O.2     1  UNL11      -0.1542
      8 O          22.3235   35.8608   -1.1747 O.2     1  UNL11      -0.1542
      9 N          22.4659   33.1310   -0.1346 N.pl3   1  UNL11      -0.1911
     10 C          23.2570   31.8638   -0.2708 C.3     1  UNL11       0.0843
     11 C          22.7316   30.7897    0.6349 C.3     1  UNL11       0.0221
     12 C          23.3834   29.4389    0.6532 C.3     1  UNL11       0.0547
     13 C          24.5606   29.1622   -0.2343 C.3     1  UNL11       0.0058
     14 C          25.0860   30.2362   -1.1400 C.3     1  UNL11       0.0147
     15 C          24.4342   31.5870   -1.1583 C.3     1  UNL11       0.0747
     16 N          25.1110   32.5091   -2.1287 N.pl3   1  UNL11      -0.3234
     17 C          26.2280   31.7221   -2.7475 C.3     1  UNL11       0.0716
     18 C          26.2129   30.3466   -2.1492 C.3     1  UNL11      -0.0035
     19 C          24.7779   33.9356   -2.4513 C.3     1  UNL11       0.1334
     20 C          23.6856   34.7924   -1.8832 C.3     1  UNL11       0.1970
     21 C          21.3345   33.0892    0.8494 C.3     1  UNL11       0.1388
     22 C          27.1580   29.2303   -2.4813 C.3     1  UNL11       0.0279
     23 C          27.3528   28.0999   -1.5146 C.3     1  UNL11       0.0051
     24 C          22.2448   25.4214    2.6810 C.3     1  UNL11       0.1839
     25 O          22.0075   25.0658    4.1188 O.3     1  UNL11      -0.3775
     26 H          21.2017   25.5056    4.4319 H       1  UNL11       0.2106
     27 C          23.4355   24.8656    1.9576 C.3     1  UNL11       0.1339
     28 N          24.7728   25.5315    2.0921 N.4     1  UNL11       0.2597
     29 H          24.7809   25.9947    3.0008 H       1  UNL11       0.2040
     30 H          24.8242   26.1238    1.2633 H       1  UNL11       0.2040
     31 C          26.0286   24.7151    2.0110 C.3     1  UNL11       0.1299
     32 C          26.6805   24.4720    0.6821 C.3     1  UNL11       0.0356
     33 C          28.0516   25.0155    0.4088 C.3     1  UNL11       0.0383
     34 C          28.7036   24.7724   -0.9201 C.3     1  UNL11       0.1386
     35 C          27.9844   23.9857   -1.9756 C.3     1  UNL11       0.0369
     36 C          26.6133   23.4422   -1.7022 C.3     1  UNL11       0.0030
     37 C          25.9614   23.6853   -0.3734 C.3     1  UNL11       0.0016
     38 O          30.0746   25.3159   -1.1935 O.2     1  UNL11      -0.4714
     39 C          30.5862   25.3869   -2.6018 C.3     1  UNL11       0.2525
     40 C          19.8125   26.1701    2.1580 C.3     1  UNL11       0.0486
     41 C          19.0786   25.0782    1.4373 C.3     1  UNL11      -0.0204
     42 C          19.3115   24.8587   -0.0282 C.3     1  UNL11      -0.0042
     43 C          18.5777   23.7669   -0.7489 C.3     1  UNL11      -0.0003
     44 C          17.6111   22.8946   -0.0041 C.3     1  UNL11      -0.0000
     45 C          17.3782   23.1142    1.4613 C.3     1  UNL11      -0.0003
     46 C          18.1120   24.2060    2.1821 C.3     1  UNL11      -0.0042
@<TRIPOS>UNITY_ATOM_ATTR
28 1
charge 1
@<TRIPOS>BOND
     1     6     7    2
     2     6     8    2
     3     6     9    1
     4     9    10    1
     5    10    11   ar
     6    11    12   ar
     7    12    13   ar
     8    13    14   ar
     9    14    15   ar
    10    15    16   ar
    11    16    17   ar
    12    17    18   ar
    13    18    22    1
    14    22    23    1
    15    16    19    1
    16    19    20    1
    17    12     2    1
    18     2     3    2
    19     2     4   am
    20     4     1    1
    21     1    24    1
    22    24    25    1
    23    24    27    1
    24    27    28    1
    25    28    31    1
    26    31    32    1
    27    32    33   ar
    28    33    34   ar
    29    34    38    1
    30    38    39    1
    31    34    35   ar
    32    35    36   ar
    33    36    37   ar
    34     1    40    1
    35    40    41    1
    36    41    42   ar
    37    42    43   ar
    38    43    44   ar
    39    44    45   ar
    40    45    46   ar
    41     9    21    1
    42    20     6    1
    43    37    32   ar
    44    46    41   ar
    45    15    10   ar
    46    18    14   ar
    47     4     5    1
    48    25    26    1
    49    28    29    1
    50    28    30    1
@<TRIPOS>MOLECULE
*****
 46 50 0 0 0
SMALL
GASTEIGER

@<TRIPOS>ATOM
      1 C          21.5026   25.4285    1.7342 C.3     1  UNL11       0.1089
      2 C          22.3182   27.8852    1.9568 C.2     1  UNL11       0.2459
      3 O          22.6028   27.6588    3.4121 O.2     1  UNL11      -0.2701
      4 N          21.7681   26.7700    1.1179 N.am    1  UNL11      -0.2995
      5 H          21.5814   26.9185    0.1628 H       1  UNL11       0.1498
      6 S          25.9480   31.8870   -1.7177 S.O2    1  UNL11       0.0590
      7 O          26.8981   30.7510   -1.9559 O.2     1  UNL11      -0.1542
      8 O          26.9931   32.5050   -2.5986 O.2     1  UNL11      -0.1542
      9 N          25.3257   30.7636   -0.9428 N.pl3   1  UNL11      -0.1911
     10 C          24.0648   30.7736   -0.1304 C.3     1  UNL11       0.0843
     11 C          23.7993   29.4321    0.4860 C.3     1  UNL11       0.0221
     12 C          22.5838   29.2267    1.3405 C.3     1  UNL11       0.0547
     13 C          21.6337   30.3628    1.5786 C.3     1  UNL11       0.0058
     14 C          21.8992   31.7042    0.9623 C.3     1  UNL11       0.0147
     15 C          23.1147   31.9096    0.1078 C.3     1  UNL11       0.0747
     16 N          23.1910   33.3162   -0.4077 N.pl3   1  UNL11      -0.3234
     17 C          21.9875   34.0287    0.1348 C.3     1  UNL11       0.0716
     18 C          21.2058   33.0532    0.9638 C.3     1  UNL11      -0.0035
     19 C          24.2360   33.9342   -1.2886 C.3     1  UNL11       0.1334
     20 C          25.4630   33.2981   -1.8716 C.3     1  UNL11       0.1970
     21 C          26.0617   29.4572   -0.9860 C.3     1  UNL11       0.1388
     22 C          19.9282   33.3423    1.6945 C.3     1  UNL11       0.0279
     23 C          18.6260   33.3603    0.9502 C.3     1  UNL11       0.0051
     24 C          22.6045   24.4151    1.8285 C.3     1  UNL11       0.1839
     25 O          22.2818   22.9507    1.7915 O.3     1  UNL11      -0.3775
     26 H          21.3229   22.8330    1.7041 H       1  UNL11       0.2106
     27 C          24.0290   24.8660    1.9599 C.3     1  UNL11       0.1339
     28 N          24.8653   25.0763    0.7325 N.4     1  UNL11       0.2597
     29 H          25.2391   26.0236    0.7896 H       1  UNL11       0.2040
     30 H          24.2186   24.8725   -0.0295 H       1  UNL11       0.2040
     31 C          26.0262   24.1688    0.4514 C.3     1  UNL11       0.1299
     32 C          25.8984   23.0838   -0.5764 C.3     1  UNL11       0.0356
     33 C          25.1154   21.8432   -0.2638 C.3     1  UNL11       0.0383
     34 C          24.9875   20.7581   -1.2917 C.3     1  UNL11       0.1386
     35 C          25.6426   20.9138   -2.6320 C.3     1  UNL11       0.0369
     36 C          26.4257   22.1545   -2.9445 C.3     1  UNL11       0.0030
     37 C          26.5535   23.2395   -1.9167 C.3     1  UNL11       0.0016
     38 O          24.2045   19.5175   -0.9791 O.2     1  UNL11      -0.4714
     39 C          23.8182   19.2114    0.4376 C.3     1  UNL11       0.2525
     40 C          20.1352   25.1004    2.2563 C.3     1  UNL11       0.0486
     41 C          19.1974   24.2688    1.4322 C.3     1  UNL11      -0.0204
     42 C          18.2667   23.3017    2.1020 C.3     1  UNL11      -0.0042
     43 C          17.3290   22.4701    1.2780 C.3     1  UNL11      -0.0003
     44 C          17.3218   22.6057   -0.2158 C.3     1  UNL11      -0.0000
     45 C          18.2525   23.5727   -0.8856 C.3     1  UNL11      -0.0003
     46 C          19.1903   24.4043   -0.0616 C.3     1  UNL11      -0.0042
@<TRIPOS>UNITY_ATOM_ATTR
28 1
charge 1
@<TRIPOS>BOND
     1     6     7    2
     2     6     8    2
     3     6     9    1
     4     9    10    1
     5    10    11   ar
     6    11    12   ar
     7    12    13   ar
     8    13    14   ar
     9    14    15   ar
    10    15    16   ar
    11    16    17   ar
    12    17    18   ar
    13    18    22    1
    14    22    23    1
    15    16    19    1
    16    19    20    1
    17    12     2    1
    18     2     3    2
    19     2     4   am
    20     4     1    1
    21     1    24    1
    22    24    25    1
    23    24    27    1
    24    27    28    1
    25    28    31    1
    26    31    32    1
    27    32    33   ar
    28    33    34   ar
    29    34    38    1
    30    38    39    1
    31    34    35   ar
    32    35    36   ar
    33    36    37   ar
    34     1    40    1
    35    40    41    1
    36    41    42   ar
    37    42    43   ar
    38    43    44   ar
    39    44    45   ar
    40    45    46   ar
    41     9    21    1
    42    20     6    1
    43    37    32   ar
    44    46    41   ar
    45    15    10   ar
    46    18    14   ar
    47     4     5    1
    48    25    26    1
    49    28    29    1
    50    28    30    1
@<TRIPOS>MOLECULE
*****
 46 50 0 0 0
SMALL
GASTEIGER

@<TRIPOS>ATOM
      1 C          23.8489   25.9612    1.0847 C.3     1  UNL11       0.1089
      2 C          25.5185   24.2010    0.1552 C.2     1  UNL11       0.2459
      3 O          25.7946   23.7259    1.5509 O.2     1  UNL11      -0.2701
      4 N          24.5456   25.3187   -0.0779 N.am    1  UNL11      -0.2995
      5 H          24.3644   25.6305   -0.9939 H       1  UNL11       0.1498
      6 S          30.3911   23.9701   -4.1919 S.O2    1  UNL11       0.0590
      7 O          30.9580   25.2124   -3.5711 O.2     1  UNL11      -0.1542
      8 O          31.6206   24.2224   -5.0132 O.2     1  UNL11      -0.1542
      9 N          29.4138   24.2707   -3.0944 N.pl3   1  UNL11      -0.1911
     10 C          28.1754   23.5155   -2.7120 C.3     1  UNL11       0.0843
     11 C          27.4788   24.1581   -1.5493 C.3     1  UNL11       0.0221
     12 C          26.2152   23.5584   -1.0075 C.3     1  UNL11       0.0547
     13 C          25.6482   22.3161   -1.6282 C.3     1  UNL11       0.0058
     14 C          26.3449   21.6736   -2.7909 C.3     1  UNL11       0.0147
     15 C          27.6085   22.2733   -3.3327 C.3     1  UNL11       0.0747
     16 N          28.1399   21.4794   -4.4892 N.pl3   1  UNL11      -0.3234
     17 C          27.1860   20.3393   -4.6904 C.3     1  UNL11       0.0716
     18 C          26.0998   20.4568   -3.6626 C.3     1  UNL11      -0.0035
     19 C          29.3694   21.7316   -5.3105 C.3     1  UNL11       0.1334
     20 C          30.3713   22.8401   -5.1782 C.3     1  UNL11       0.1970
     21 C          29.7147   25.4873   -2.2702 C.3     1  UNL11       0.1388
     22 C          24.9355   19.5252   -3.4998 C.3     1  UNL11       0.0279
     23 C          24.7712   18.7451   -2.2292 C.3     1  UNL11       0.0051
     24 C          22.6906   25.2697    1.7405 C.3     1  UNL11       0.1839
     25 O          22.6397   23.7712    1.7858 O.3     1  UNL11      -0.3775
     26 H          23.4262   23.4076    1.3499 H       1  UNL11       0.2106
     27 C          21.5832   26.0765    2.3509 C.3     1  UNL11       0.1339
     28 N          20.5705   25.4117    3.2354 N.4     1  UNL11       0.2597
     29 H          20.4594   26.0078    4.0556 H       1  UNL11       0.2040
     30 H          20.9618   24.4811    3.3815 H       1  UNL11       0.2040
     31 C          19.1920   25.1283    2.7160 C.3     1  UNL11       0.1299
     32 C          19.0119   24.2922    1.4838 C.3     1  UNL11       0.0356
     33 C          18.9413   22.7980    1.5951 C.3     1  UNL11       0.0383
     34 C          18.7612   21.9618    0.3628 C.3     1  UNL11       0.1386
     35 C          18.6518   22.6199   -0.9807 C.3     1  UNL11       0.0369
     36 C          18.7225   24.1141   -1.0919 C.3     1  UNL11       0.0030
     37 C          18.9025   24.9502    0.1403 C.3     1  UNL11       0.0016
     38 O          18.6906   20.4677    0.4741 O.2     1  UNL11      -0.4714
     39 C          19.3026   19.6065   -0.5907 C.3     1  UNL11       0.2525
     40 C          24.3105   27.2954    1.5916 C.3     1  UNL11       0.0486
     41 C          23.8856   28.5519    0.8909 C.3     1  UNL11      -0.0204
     42 C          23.5475   29.7771    1.6875 C.3     1  UNL11      -0.0042
     43 C          23.1226   31.0335    0.9869 C.3     1  UNL11      -0.0003
     44 C          23.0358   31.0647   -0.5103 C.3     1  UNL11      -0.0000
     45 C          23.3739   29.8394   -1.3068 C.3     1  UNL11      -0.0003
     46 C          23.7988   28.5830   -0.6062 C.3     1  UNL11      -0.0042
@<TRIPOS>UNITY_ATOM_ATTR
28 1
charge 1
@<TRIPOS>BOND
     1     6     7    2
     2     6     8    2
     3     6     9    1
     4     9    10    1
     5    10    11   ar
     6    11    12   ar
     7    12    13   ar
     8    13    14   ar
     9    14    15   ar
    10    15    16   ar
    11    16    17   ar
    12    17    18   ar
    13    18    22    1
    14    22    23    1
    15    16    19    1
    16    19    20    1
    17    12     2    1
    18     2     3    2
    19     2     4   am
    20     4     1    1
    21     1    24    1
    22    24    25    1
    23    24    27    1
    24    27    28    1
    25    28    31    1
    26    31    32    1
    27    32    33   ar
    28    33    34   ar
    29    34    38    1
    30    38    39    1
    31    34    35   ar
    32    35    36   ar
    33    36    37   ar
    34     1    40    1
    35    40    41    1
    36    41    42   ar
    37    42    43   ar
    38    43    44   ar
    39    44    45   ar
    40    45    46   ar
    41     9    21    1
    42    20     6    1
    43    37    32   ar
    44    46    41   ar
    45    15    10   ar
    46    18    14   ar
    47     4     5    1
    48    25    26    1
    49    28    29    1
    50    28    30    1
