@<TRIPOS>MOLECULE
*****
 46 50 0 0 0
SMALL
GASTEIGER

@<TRIPOS>ATOM
      1 C          23.5693   25.4939    1.6148 C.3     1  UNL1        0.1089
      2 C          23.4049   28.0763    1.3826 C.2     1  UNL1        0.2459
      3 O          23.8276   28.2319    2.8133 O.2     1  UNL1       -0.2701
      4 N          23.2757   26.7073    0.7833 N.am    1  UNL1       -0.2995
      5 H          22.9983   26.6052   -0.1558 H       1  UNL1        0.1498
      6 S          24.2223   31.6551   -4.0227 S.O2    1  UNL1        0.0590
      7 O          25.1720   30.6105   -4.5295 O.2     1  UNL1       -0.1542
      8 O          24.6377   32.2007   -5.3568 O.2     1  UNL1       -0.1542
      9 N          24.2296   30.6447   -2.9141 N.pl3   1  UNL1       -0.1911
     10 C          23.4738   30.6720   -1.6187 C.ar    1  UNL1        0.0843
     11 C          23.7674   29.4586   -0.7872 C.ar    1  UNL1        0.0221
     12 C          23.1113   29.2898    0.5510 C.ar    1  UNL1        0.0547
     13 C          22.1616   30.3344    1.0578 C.ar    1  UNL1        0.0058
     14 C          21.8680   31.5478    0.2264 C.ar    1  UNL1        0.0147
     15 C          22.5241   31.7166   -1.1119 C.ar    1  UNL1        0.0747
     16 N          22.0957   32.9919   -1.7754 N.ar    1  UNL1       -0.3234
     17 C          21.1375   33.6558   -0.8313 C.ar    1  UNL1        0.0716
     18 C          20.9998   32.7820    0.3801 C.ar    1  UNL1       -0.0035
     19 C          22.5110   33.5375   -3.1094 C.3     1  UNL1        0.1334
     20 C          23.4575   32.9425   -4.1096 C.3     1  UNL1        0.1970
     21 C          25.1089   29.4486   -3.1294 C.3     1  UNL1        0.1388
     22 C          20.1400   33.0628    1.5767 C.3     1  UNL1        0.0279
     23 C          18.6533   33.1855    1.4198 C.3     1  UNL1        0.0051
     24 C          22.4519   24.7700    2.3059 C.3     1  UNL1        0.1839
     25 O          22.1498   23.3440    1.9518 O.3     1  UNL1       -0.3775
     26 H          22.7650   23.0443    1.2643 H       1  UNL1        0.2106
     27 C          21.6367   25.4721    3.3511 C.3     1  UNL1        0.1339
     28 N          20.1387   25.4298    3.2874 N.4     1  UNL1        0.2597
     29 H          19.7958   26.1108    3.9650 H       1  UNL1        0.2040
     30 H          19.9243   24.4477    3.4601 H       1  UNL1        0.2040
     31 C          19.4347   25.7141    1.9936 C.3     1  UNL1        0.1299
     32 C          18.9224   24.5816    1.1540 C.ar    1  UNL1        0.0356
     33 C          18.4038   23.3364    1.8101 C.ar    1  UNL1        0.0383
     34 C          17.8915   22.2038    0.9705 C.ar    1  UNL1        0.1386
     35 C          17.8977   22.3166   -0.5253 C.ar    1  UNL1        0.0369
     36 C          18.4163   23.5619   -1.1814 C.ar    1  UNL1        0.0030
     37 C          18.9286   24.6944   -0.3418 C.ar    1  UNL1        0.0016
     38 O          17.3730   20.9586    1.6266 O.3     1  UNL1       -0.4714
     39 C          17.8182   20.6005    3.0135 C.3     1  UNL1        0.2525
     40 C          24.9801   25.0042    1.7551 C.3     1  UNL1        0.0486
     41 C          25.7753   24.6479    0.5341 C.ar    1  UNL1       -0.0204
     42 C          26.7901   25.6108   -0.0073 C.ar    1  UNL1       -0.0042
     43 C          27.5853   25.2546   -1.2282 C.ar    1  UNL1       -0.0003
     44 C          27.3657   23.9355   -1.9077 C.ar    1  UNL1       -0.0000
     45 C          26.3509   22.9726   -1.3663 C.ar    1  UNL1       -0.0003
     46 C          25.5558   23.3289   -0.1453 C.ar    1  UNL1       -0.0042
@<TRIPOS>UNITY_ATOM_ATTR
28 1
charge 1
@<TRIPOS>BOND
     1     6     7    2
     2     6     8    2
     3     6     9    1
     4     9    10    1
     5    10    11   ar
     6    11    12   ar
     7    12    13   ar
     8    13    14   ar
     9    14    15   ar
    10    15    16   ar
    11    16    17   ar
    12    17    18   ar
    13    18    22    1
    14    22    23    1
    15    16    19    1
    16    19    20    1
    17    12     2    1
    18     2     3    2
    19     2     4   am
    20     4     1    1
    21     1    24    1
    22    24    25    1
    23    24    27    1
    24    27    28    1
    25    28    31    1
    26    31    32    1
    27    32    33   ar
    28    33    34   ar
    29    34    38    1
    30    38    39    1
    31    34    35   ar
    32    35    36   ar
    33    36    37   ar
    34     1    40    1
    35    40    41    1
    36    41    42   ar
    37    42    43   ar
    38    43    44   ar
    39    44    45   ar
    40    45    46   ar
    41     9    21    1
    42    20     6    1
    43    37    32   ar
    44    46    41   ar
    45    15    10   ar
    46    18    14   ar
    47     4     5    1
    48    25    26    1
    49    28    29    1
    50    28    30    1
@<TRIPOS>MOLECULE
*****
 46 50 0 0 0
SMALL
GASTEIGER

@<TRIPOS>ATOM
      1 C          23.8888   25.2835    1.5499 C.3     1  UNL1        0.1089
      2 C          24.3525   27.8303    1.3295 C.2     1  UNL1        0.2459
      3 O          24.8742   27.8570    2.7356 O.2     1  UNL1       -0.2701
      4 N          23.8598   26.5436    0.7367 N.am    1  UNL1       -0.2995
      5 H          23.5175   26.5260   -0.1862 H       1  UNL1        0.1498
      6 S          21.5499   33.4748   -0.3963 S.O2    1  UNL1        0.0590
      7 O          20.4498   33.1883    0.5823 O.2     1  UNL1       -0.1542
      8 O          20.6534   34.6683   -0.5433 O.2     1  UNL1       -0.1542
      9 N          21.9570   32.1537    0.1861 N.pl3   1  UNL1       -0.1911
     10 C          23.1656   31.3240   -0.1316 C.ar    1  UNL1        0.0843
     11 C          23.1945   30.0640    0.6816 C.ar    1  UNL1        0.0221
     12 C          24.3235   29.0904    0.5163 C.ar    1  UNL1        0.0547
     13 C          25.4236   29.3769   -0.4624 C.ar    1  UNL1        0.0058
     14 C          25.3947   30.6369   -1.2757 C.ar    1  UNL1        0.0147
     15 C          24.2657   31.6105   -1.1103 C.ar    1  UNL1        0.0747
     16 N          24.4288   32.7974   -2.0129 N.ar    1  UNL1       -0.3234
     17 C          25.7003   32.5733   -2.7766 C.ar    1  UNL1        0.0716
     18 C          26.2848   31.2659   -2.3305 C.ar    1  UNL1       -0.0035
     19 C          23.5323   33.9909   -2.1599 C.3     1  UNL1        0.1334
     20 C          22.2510   34.2924   -1.4404 C.3     1  UNL1        0.1970
     21 C          21.0333   31.5875    1.2234 C.3     1  UNL1        0.1388
     22 C          27.5562   30.6506   -2.8351 C.3     1  UNL1        0.0279
     23 C          27.5469   29.8364   -4.0949 C.3     1  UNL1        0.0051
     24 C          22.6319   24.7768    2.1930 C.3     1  UNL1        0.1839
     25 O          22.1505   23.3856    1.9055 O.3     1  UNL1       -0.3775
     26 H          22.7622   22.9526    1.2896 H       1  UNL1        0.2106
     27 C          21.8564   25.6614    3.1236 C.3     1  UNL1        0.1339
     28 N          20.3754   25.4771    3.2734 N.4     1  UNL1        0.2597
     29 H          20.0789   26.0844    4.0374 H       1  UNL1        0.2040
     30 H          20.2768   24.4710    3.4089 H       1  UNL1        0.2040
     31 C          19.4635   25.7602    2.1165 C.3     1  UNL1        0.1299
     32 C          18.9609   24.6327    1.2643 C.ar    1  UNL1        0.0356
     33 C          18.4505   23.3770    1.9067 C.ar    1  UNL1        0.0383
     34 C          17.9479   22.2495    1.0546 C.ar    1  UNL1        0.1386
     35 C          17.9557   22.3777   -0.4399 C.ar    1  UNL1        0.0369
     36 C          18.4662   23.6334   -1.0823 C.ar    1  UNL1        0.0030
     37 C          18.9688   24.7609   -0.2302 C.ar    1  UNL1        0.0016
     38 O          17.4374   20.9938    1.6969 O.3     1  UNL1       -0.4714
     39 C          17.8176   20.6665    3.1106 C.3     1  UNL1        0.2525
     40 C          25.1746   24.5300    1.7200 C.3     1  UNL1        0.0486
     41 C          26.1272   24.4025    0.5682 C.ar    1  UNL1       -0.0204
     42 C          27.4018   25.1932    0.5581 C.ar    1  UNL1       -0.0042
     43 C          28.3544   25.0657   -0.5936 C.ar    1  UNL1       -0.0003
     44 C          28.0323   24.1475   -1.7351 C.ar    1  UNL1       -0.0000
     45 C          26.7577   23.3568   -1.7249 C.ar    1  UNL1       -0.0003
     46 C          25.8051   23.4843   -0.5733 C.ar    1  UNL1       -0.0042
@<TRIPOS>UNITY_ATOM_ATTR
28 1
charge 1
@<TRIPOS>BOND
     1     6     7    2
     2     6     8    2
     3     6     9    1
     4     9    10    1
     5    10    11   ar
     6    11    12   ar
     7    12    13   ar
     8    13    14   ar
     9    14    15   ar
    10    15    16   ar
    11    16    17   ar
    12    17    18   ar
    13    18    22    1
    14    22    23    1
    15    16    19    1
    16    19    20    1
    17    12     2    1
    18     2     3    2
    19     2     4   am
    20     4     1    1
    21     1    24    1
    22    24    25    1
    23    24    27    1
    24    27    28    1
    25    28    31    1
    26    31    32    1
    27    32    33   ar
    28    33    34   ar
    29    34    38    1
    30    38    39    1
    31    34    35   ar
    32    35    36   ar
    33    36    37   ar
    34     1    40    1
    35    40    41    1
    36    41    42   ar
    37    42    43   ar
    38    43    44   ar
    39    44    45   ar
    40    45    46   ar
    41     9    21    1
    42    20     6    1
    43    37    32   ar
    44    46    41   ar
    45    15    10   ar
    46    18    14   ar
    47     4     5    1
    48    25    26    1
    49    28    29    1
    50    28    30    1
@<TRIPOS>MOLECULE
*****
 46 50 0 0 0
SMALL
GASTEIGER

@<TRIPOS>ATOM
      1 C          23.7877   25.5887    1.6970 C.3     1  UNL1        0.1089
      2 C          23.7647   28.1861    1.6465 C.2     1  UNL1        0.2459
      3 O          24.1616   28.2178    3.0927 O.2     1  UNL1       -0.2701
      4 N          23.5778   26.8716    0.9487 N.am    1  UNL1       -0.2995
      5 H          23.3173   26.8508   -0.0005 H       1  UNL1        0.1498
      6 S          25.8780   32.8982   -2.3565 S.O2    1  UNL1        0.0590
      7 O          27.1901   32.1781   -2.4557 O.2     1  UNL1       -0.1542
      8 O          26.6721   33.7769   -3.2769 O.2     1  UNL1       -0.1542
      9 N          25.6677   31.6990   -1.4802 N.pl3   1  UNL1       -0.1911
     10 C          24.4469   31.3148   -0.6979 C.ar    1  UNL1        0.0843
     11 C          24.6569   30.0319    0.0505 C.ar    1  UNL1        0.0221
     12 C          23.5547   29.4691    0.8981 C.ar    1  UNL1        0.0547
     13 C          22.2426   30.1891    0.9973 C.ar    1  UNL1        0.0058
     14 C          22.0326   31.4720    0.2490 C.ar    1  UNL1        0.0147
     15 C          23.1348   32.0348   -0.5986 C.ar    1  UNL1        0.0747
     16 N          22.7195   33.3170   -1.2572 N.ar    1  UNL1       -0.3234
     17 C          21.3099   33.5791   -0.8159 C.ar    1  UNL1        0.0716
     18 C          20.8943   32.4626    0.0956 C.ar    1  UNL1       -0.0035
     19 C          23.5135   34.1957   -2.1776 C.3     1  UNL1        0.1334
     20 C          24.9193   34.0093   -2.6669 C.3     1  UNL1        0.1970
     21 C          26.8323   30.7599   -1.3719 C.3     1  UNL1        0.1388
     22 C          19.5604   32.3228    0.7671 C.3     1  UNL1        0.0279
     23 C          18.6624   33.5162    0.9070 C.3     1  UNL1        0.0051
     24 C          22.6213   24.8914    2.3322 C.3     1  UNL1        0.1839
     25 O          22.2858   23.4827    1.9409 O.3     1  UNL1       -0.3775
     26 H          22.9166   23.1741    1.2717 H       1  UNL1        0.2106
     27 C          21.7904   25.6028    3.3586 C.3     1  UNL1        0.1339
     28 N          20.2942   25.5087    3.3086 N.4     1  UNL1        0.2597
     29 H          19.9337   26.1968    3.9696 H       1  UNL1        0.2040
     30 H          20.1143   24.5253    3.5106 H       1  UNL1        0.2040
     31 C          19.5715   25.7325    2.0133 C.3     1  UNL1        0.1299
     32 C          18.7644   24.6249    1.4037 C.ar    1  UNL1        0.0356
     33 C          18.9614   24.2590   -0.0376 C.ar    1  UNL1        0.0383
     34 C          18.1542   23.1513   -0.6473 C.ar    1  UNL1        0.1386
     35 C          17.1502   22.4095    0.1844 C.ar    1  UNL1        0.0369
     36 C          16.9533   22.7754    1.6258 C.ar    1  UNL1        0.0030
     37 C          17.7604   23.8831    2.2354 C.ar    1  UNL1        0.0016
     38 O          18.3511   22.7855   -2.0886 O.3     1  UNL1       -0.4714
     39 C          18.2768   23.8446   -3.1481 C.3     1  UNL1        0.2525
     40 C          25.1640   25.0030    1.8102 C.3     1  UNL1        0.0486
     41 C          25.9169   24.6123    0.5730 C.ar    1  UNL1       -0.0204
     42 C          27.0424   25.4711    0.0774 C.ar    1  UNL1       -0.0042
     43 C          27.7953   25.0805   -1.1597 C.ar    1  UNL1       -0.0003
     44 C          27.4227   23.8311   -1.9012 C.ar    1  UNL1       -0.0000
     45 C          26.2971   22.9722   -1.4057 C.ar    1  UNL1       -0.0003
     46 C          25.5442   23.3629   -0.1686 C.ar    1  UNL1       -0.0042
@<TRIPOS>UNITY_ATOM_ATTR
28 1
charge 1
@<TRIPOS>BOND
     1     6     7    2
     2     6     8    2
     3     6     9    1
     4     9    10    1
     5    10    11   ar
     6    11    12   ar
     7    12    13   ar
     8    13    14   ar
     9    14    15   ar
    10    15    16   ar
    11    16    17   ar
    12    17    18   ar
    13    18    22    1
    14    22    23    1
    15    16    19    1
    16    19    20    1
    17    12     2    1
    18     2     3    2
    19     2     4   am
    20     4     1    1
    21     1    24    1
    22    24    25    1
    23    24    27    1
    24    27    28    1
    25    28    31    1
    26    31    32    1
    27    32    33   ar
    28    33    34   ar
    29    34    38    1
    30    38    39    1
    31    34    35   ar
    32    35    36   ar
    33    36    37   ar
    34     1    40    1
    35    40    41    1
    36    41    42   ar
    37    42    43   ar
    38    43    44   ar
    39    44    45   ar
    40    45    46   ar
    41     9    21    1
    42    20     6    1
    43    37    32   ar
    44    46    41   ar
    45    15    10   ar
    46    18    14   ar
    47     4     5    1
    48    25    26    1
    49    28    29    1
    50    28    30    1
@<TRIPOS>MOLECULE
*****
 46 50 0 0 0
SMALL
GASTEIGER

@<TRIPOS>ATOM
      1 C          23.6209   25.4230    1.3183 C.3     1  UNL1        0.1089
      2 C          23.3845   28.0084    1.2190 C.2     1  UNL1        0.2459
      3 O          23.7482   28.0975    2.6715 O.2     1  UNL1       -0.2701
      4 N          23.3208   26.6711    0.5424 N.am    1  UNL1       -0.2995
      5 H          23.0821   26.6126   -0.4109 H       1  UNL1        0.1498
      6 S          24.1062   31.7861   -4.0631 S.O2    1  UNL1        0.0590
      7 O          25.0299   30.7516   -4.6346 O.2     1  UNL1       -0.1542
      8 O          24.4937   32.3787   -5.3855 O.2     1  UNL1       -0.1542
      9 N          24.1296   30.7331   -2.9951 N.pl3   1  UNL1       -0.1911
     10 C          23.4078   30.7183   -1.6803 C.ar    1  UNL1        0.0843
     11 C          23.7079   29.4701   -0.9044 C.ar    1  UNL1        0.0221
     12 C          23.0843   29.2565    0.4430 C.ar    1  UNL1        0.0547
     13 C          22.1607   30.2910    1.0145 C.ar    1  UNL1        0.0058
     14 C          21.8605   31.5392    0.2386 C.ar    1  UNL1        0.0147
     15 C          22.4841   31.7528   -1.1088 C.ar    1  UNL1        0.0747
     16 N          22.0542   33.0576   -1.7110 N.ar    1  UNL1       -0.3234
     17 C          21.1286   33.6948   -0.7172 C.ar    1  UNL1        0.0716
     18 C          21.0115   32.7759    0.4626 C.ar    1  UNL1       -0.0035
     19 C          22.4417   33.6503   -3.0333 C.3     1  UNL1        0.1334
     20 C          23.3550   33.0843   -4.0801 C.3     1  UNL1        0.1970
     21 C          24.9886   29.5367   -3.2794 C.3     1  UNL1        0.1388
     22 C          20.1861   33.0193    1.6912 C.3     1  UNL1        0.0279
     23 C          18.7045   33.2204    1.5716 C.3     1  UNL1        0.0051
     24 C          24.9206   24.7039    1.1089 C.3     1  UNL1        0.1839
     25 O          25.7474   24.2898    2.2900 O.3     1  UNL1       -0.3775
     26 H          25.3017   24.5609    3.1077 H       1  UNL1        0.2106
     27 C          25.3935   24.3991   -0.2815 C.3     1  UNL1        0.1339
     28 N          25.8464   25.5112   -1.1804 N.4     1  UNL1        0.2597
     29 H          25.1155   26.2224   -1.1600 H       1  UNL1        0.2040
     30 H          26.0175   25.0399   -2.0686 H       1  UNL1        0.2040
     31 C          27.1430   26.2148   -0.9082 C.3     1  UNL1        0.1299
     32 C          27.1633   27.4434   -0.0479 C.ar    1  UNL1        0.0356
     33 C          27.1066   28.8025   -0.6800 C.ar    1  UNL1        0.0383
     34 C          27.1269   30.0313    0.1802 C.ar    1  UNL1        0.1386
     35 C          27.2040   29.9008    1.6725 C.ar    1  UNL1        0.0369
     36 C          27.2607   28.5416    2.3046 C.ar    1  UNL1        0.0030
     37 C          27.2403   27.3130    1.4444 C.ar    1  UNL1        0.0016
     38 O          27.0702   31.3903   -0.4519 O.3     1  UNL1       -0.4714
     39 C          28.3209   32.0203   -0.9894 C.3     1  UNL1        0.2525
     40 C          22.6214   24.8938    2.3037 C.3     1  UNL1        0.0486
     41 C          21.1639   24.8625    1.9501 C.ar    1  UNL1       -0.0204
     42 C          20.3119   26.0768    2.1729 C.ar    1  UNL1       -0.0042
     43 C          18.8545   26.0455    1.8193 C.ar    1  UNL1       -0.0003
     44 C          18.2492   24.8000    1.2431 C.ar    1  UNL1       -0.0000
     45 C          19.1012   23.5857    1.0203 C.ar    1  UNL1       -0.0003
     46 C          20.5586   23.6170    1.3738 C.ar    1  UNL1       -0.0042
@<TRIPOS>UNITY_ATOM_ATTR
28 1
charge 1
@<TRIPOS>BOND
     1     6     7    2
     2     6     8    2
     3     6     9    1
     4     9    10    1
     5    10    11   ar
     6    11    12   ar
     7    12    13   ar
     8    13    14   ar
     9    14    15   ar
    10    15    16   ar
    11    16    17   ar
    12    17    18   ar
    13    18    22    1
    14    22    23    1
    15    16    19    1
    16    19    20    1
    17    12     2    1
    18     2     3    2
    19     2     4   am
    20     4     1    1
    21     1    24    1
    22    24    25    1
    23    24    27    1
    24    27    28    1
    25    28    31    1
    26    31    32    1
    27    32    33   ar
    28    33    34   ar
    29    34    38    1
    30    38    39    1
    31    34    35   ar
    32    35    36   ar
    33    36    37   ar
    34     1    40    1
    35    40    41    1
    36    41    42   ar
    37    42    43   ar
    38    43    44   ar
    39    44    45   ar
    40    45    46   ar
    41     9    21    1
    42    20     6    1
    43    37    32   ar
    44    46    41   ar
    45    15    10   ar
    46    18    14   ar
    47     4     5    1
    48    25    26    1
    49    28    29    1
    50    28    30    1
@<TRIPOS>MOLECULE
*****
 46 50 0 0 0
SMALL
GASTEIGER

@<TRIPOS>ATOM
      1 C          20.7603   19.7715    0.7682 C.3     1  UNL1        0.1089
      2 C          23.1840   19.9369   -0.1528 C.2     1  UNL1        0.2459
      3 O          23.4171   18.4983    0.2021 O.2     1  UNL1       -0.2701
      4 N          21.8556   20.5735    0.1303 N.am    1  UNL1       -0.2995
      5 H          21.7026   21.5177   -0.1027 H       1  UNL1        0.1498
      6 S          27.3929   24.9346   -0.1193 S.O2    1  UNL1        0.0590
      7 O          26.8552   25.3339    1.2228 O.2     1  UNL1       -0.1542
      8 O          28.2036   26.1511    0.2165 O.2     1  UNL1       -0.1542
      9 N          26.3430   23.8957    0.1420 N.pl3   1  UNL1       -0.1911
     10 C          25.9321   22.7424   -0.7246 C.ar    1  UNL1        0.0843
     11 C          24.8369   21.9404   -0.0866 C.ar    1  UNL1        0.0221
     12 C          24.2793   20.7390   -0.7908 C.ar    1  UNL1        0.0547
     13 C          24.8171   20.3397   -2.1329 C.ar    1  UNL1        0.0058
     14 C          25.9124   21.1417   -2.7709 C.ar    1  UNL1        0.0147
     15 C          26.4699   22.3431   -2.0668 C.ar    1  UNL1        0.0747
     16 N          27.5512   22.9985   -2.8737 N.ar    1  UNL1       -0.3234
     17 C          27.6869   22.1903   -4.1301 C.ar    1  UNL1        0.0716
     18 C          26.6951   21.0667   -4.0679 C.ar    1  UNL1       -0.0035
     19 C          28.3620   24.2150   -2.5379 C.3     1  UNL1        0.1334
     20 C          28.2915   25.0767   -1.3120 C.3     1  UNL1        0.1970
     21 C          25.6063   24.0277    1.4420 C.3     1  UNL1        0.1388
     22 C          26.4883   20.0142   -5.1164 C.3     1  UNL1        0.0279
     23 C          26.8073   18.5803   -4.8128 C.3     1  UNL1        0.0051
     24 C          20.7910   19.5000    2.2432 C.3     1  UNL1        0.1839
     25 O          22.1029   19.2933    2.9406 O.3     1  UNL1       -0.3775
     26 H          22.8258   19.3670    2.2980 H       1  UNL1        0.2106
     27 C          19.5100   19.4354    3.0207 C.3     1  UNL1        0.1339
     28 N          18.7655   20.6963    3.3458 N.4     1  UNL1        0.2597
     29 H          19.4657   21.4267    3.4747 H       1  UNL1        0.2040
     30 H          18.2054   20.4353    4.1573 H       1  UNL1        0.2040
     31 C          17.7487   21.2361    2.3842 C.3     1  UNL1        0.1299
     32 C          18.1135   22.3586    1.4586 C.ar    1  UNL1        0.0356
     33 C          18.7453   23.6050    2.0038 C.ar    1  UNL1        0.0383
     34 C          19.1102   24.7276    1.0782 C.ar    1  UNL1        0.1386
     35 C          18.8433   24.6037   -0.3927 C.ar    1  UNL1        0.0369
     36 C          18.2115   23.3572   -0.9379 C.ar    1  UNL1        0.0030
     37 C          17.8466   22.2347   -0.0123 C.ar    1  UNL1        0.0016
     38 O          19.7420   25.9740    1.6234 O.3     1  UNL1       -0.4714
     39 C          20.8558   25.8747    2.6232 C.3     1  UNL1        0.2525
     40 C          19.6343   19.2409   -0.0687 C.3     1  UNL1        0.0486
     41 C          19.8651   18.9094   -1.5133 C.ar    1  UNL1       -0.0204
     42 C          20.7242   17.7376   -1.8859 C.ar    1  UNL1       -0.0042
     43 C          20.9551   17.4060   -3.3304 C.ar    1  UNL1       -0.0003
     44 C          20.3268   18.2463   -4.4024 C.ar    1  UNL1       -0.0000
     45 C          19.4677   19.4181   -4.0298 C.ar    1  UNL1       -0.0003
     46 C          19.2369   19.7497   -2.5853 C.ar    1  UNL1       -0.0042
@<TRIPOS>UNITY_ATOM_ATTR
28 1
charge 1
@<TRIPOS>BOND
     1     6     7    2
     2     6     8    2
     3     6     9    1
     4     9    10    1
     5    10    11   ar
     6    11    12   ar
     7    12    13   ar
     8    13    14   ar
     9    14    15   ar
    10    15    16   ar
    11    16    17   ar
    12    17    18   ar
    13    18    22    1
    14    22    23    1
    15    16    19    1
    16    19    20    1
    17    12     2    1
    18     2     3    2
    19     2     4   am
    20     4     1    1
    21     1    24    1
    22    24    25    1
    23    24    27    1
    24    27    28    1
    25    28    31    1
    26    31    32    1
    27    32    33   ar
    28    33    34   ar
    29    34    38    1
    30    38    39    1
    31    34    35   ar
    32    35    36   ar
    33    36    37   ar
    34     1    40    1
    35    40    41    1
    36    41    42   ar
    37    42    43   ar
    38    43    44   ar
    39    44    45   ar
    40    45    46   ar
    41     9    21    1
    42    20     6    1
    43    37    32   ar
    44    46    41   ar
    45    15    10   ar
    46    18    14   ar
    47     4     5    1
    48    25    26    1
    49    28    29    1
    50    28    30    1
@<TRIPOS>MOLECULE
*****
 46 50 0 0 0
SMALL
GASTEIGER

@<TRIPOS>ATOM
      1 C          24.2852   25.9026    1.3420 C.3     1  UNL1        0.1089
      2 C          25.6891   24.0337    0.2079 C.2     1  UNL1        0.2459
      3 O          25.8167   23.3296    1.5262 O.2     1  UNL1       -0.2701
      4 N          24.9234   25.3202    0.1158 N.am    1  UNL1       -0.2995
      5 H          24.8396   25.7824   -0.7494 H       1  UNL1        0.1498
      6 S          30.3460   24.0245   -4.3754 S.O2    1  UNL1        0.0590
      7 O          30.9456   25.2332   -3.7200 O.2     1  UNL1       -0.1542
      8 O          31.5352   24.3181   -5.2411 O.2     1  UNL1       -0.1542
      9 N          29.4235   24.2686   -3.2180 N.pl3   1  UNL1       -0.1911
     10 C          28.2030   23.4952   -2.8154 C.ar    1  UNL1        0.0843
     11 C          27.5649   24.0776   -1.5892 C.ar    1  UNL1        0.0221
     12 C          26.3272   23.4513   -1.0184 C.ar    1  UNL1        0.0547
     13 C          25.7276   22.2426   -1.6738 C.ar    1  UNL1        0.0058
     14 C          26.3657   21.6602   -2.9000 C.ar    1  UNL1        0.0147
     15 C          27.6034   22.2865   -3.4708 C.ar    1  UNL1        0.0747
     16 N          28.0763   21.5528   -4.6906 N.ar    1  UNL1       -0.3234
     17 C          27.1107   20.4247   -4.9036 C.ar    1  UNL1        0.0716
     18 C          26.0756   20.4897   -3.8199 C.ar    1  UNL1       -0.0035
     19 C          29.2655   21.8464   -5.5564 C.3     1  UNL1        0.1334
     20 C          30.2756   22.9464   -5.4160 C.3     1  UNL1        0.1970
     21 C          29.7671   25.4414   -2.3482 C.3     1  UNL1        0.1388
     22 C          24.9180   19.5513   -3.6490 C.3     1  UNL1        0.0279
     23 C          24.8108   18.7101   -2.4117 C.3     1  UNL1        0.0051
     24 C          22.9701   25.3696    1.8283 C.3     1  UNL1        0.1839
     25 O          22.6562   23.9091    1.6919 O.3     1  UNL1       -0.3775
     26 H          23.4038   23.4556    1.2721 H       1  UNL1        0.2106
     27 C          21.9690   26.2969    2.4510 C.3     1  UNL1        0.1339
     28 N          20.6868   25.7523    3.0071 N.4     1  UNL1        0.2597
     29 H          20.5298   26.2218    3.8990 H       1  UNL1        0.2040
     30 H          20.8498   24.7457    3.0295 H       1  UNL1        0.2040
     31 C          19.4151   25.8784    2.2216 C.3     1  UNL1        0.1299
     32 C          18.9449   24.7383    1.3678 C.ar    1  UNL1        0.0356
     33 C          18.3661   23.5112    2.0075 C.ar    1  UNL1        0.0383
     34 C          17.8958   22.3711    1.1537 C.ar    1  UNL1        0.1386
     35 C          18.0043   22.4580   -0.3398 C.ar    1  UNL1        0.0369
     36 C          18.5832   23.6852   -0.9796 C.ar    1  UNL1        0.0030
     37 C          19.0534   24.8253   -0.1258 C.ar    1  UNL1        0.0016
     38 O          17.3170   21.1440    1.7934 O.3     1  UNL1       -0.4714
     39 C          17.8893   20.6283    3.0805 C.3     1  UNL1        0.2525
     40 C          24.9621   27.0181    2.0819 C.3     1  UNL1        0.0486
     41 C          25.7358   28.0580    1.3269 C.ar    1  UNL1       -0.0204
     42 C          25.3523   28.4024   -0.0818 C.ar    1  UNL1       -0.0042
     43 C          26.1259   29.4423   -0.8368 C.ar    1  UNL1       -0.0003
     44 C          27.2831   30.1377   -0.1833 C.ar    1  UNL1       -0.0000
     45 C          27.6667   29.7933    1.2254 C.ar    1  UNL1       -0.0003
     46 C          26.8930   28.7535    1.9804 C.ar    1  UNL1       -0.0042
@<TRIPOS>UNITY_ATOM_ATTR
28 1
charge 1
@<TRIPOS>BOND
     1     6     7    2
     2     6     8    2
     3     6     9    1
     4     9    10    1
     5    10    11   ar
     6    11    12   ar
     7    12    13   ar
     8    13    14   ar
     9    14    15   ar
    10    15    16   ar
    11    16    17   ar
    12    17    18   ar
    13    18    22    1
    14    22    23    1
    15    16    19    1
    16    19    20    1
    17    12     2    1
    18     2     3    2
    19     2     4   am
    20     4     1    1
    21     1    24    1
    22    24    25    1
    23    24    27    1
    24    27    28    1
    25    28    31    1
    26    31    32    1
    27    32    33   ar
    28    33    34   ar
    29    34    38    1
    30    38    39    1
    31    34    35   ar
    32    35    36   ar
    33    36    37   ar
    34     1    40    1
    35    40    41    1
    36    41    42   ar
    37    42    43   ar
    38    43    44   ar
    39    44    45   ar
    40    45    46   ar
    41     9    21    1
    42    20     6    1
    43    37    32   ar
    44    46    41   ar
    45    15    10   ar
    46    18    14   ar
    47     4     5    1
    48    25    26    1
    49    28    29    1
    50    28    30    1
@<TRIPOS>MOLECULE
*****
 46 50 0 0 0
SMALL
GASTEIGER

@<TRIPOS>ATOM
      1 C          21.7313   25.6751    1.6599 C.3     1  UNL1        0.1089
      2 C          22.6673   28.0984    1.6991 C.2     1  UNL1        0.2459
      3 O          22.9238   27.9755    3.1718 O.2     1  UNL1       -0.2701
      4 N          22.0710   26.9482    0.9431 N.am    1  UNL1       -0.2995
      5 H          21.9027   27.0289   -0.0235 H       1  UNL1        0.1498
      6 S          26.8633   31.8873   -1.5767 S.O2    1  UNL1        0.0590
      7 O          27.8934   30.8054   -1.4406 O.2     1  UNL1       -0.1542
      8 O          28.0547   32.4708   -2.2768 O.2     1  UNL1       -0.1542
      9 N          26.1303   30.8223   -0.8161 N.pl3   1  UNL1       -0.1911
     10 C          24.7164   30.8358   -0.3152 C.ar    1  UNL1        0.0843
     11 C          24.3767   29.5628    0.4016 C.ar    1  UNL1        0.0221
     12 C          23.0070   29.3715    0.9822 C.ar    1  UNL1        0.0547
     13 C          21.9769   30.4534    0.8461 C.ar    1  UNL1        0.0058
     14 C          22.3166   31.7265    0.1293 C.ar    1  UNL1        0.0147
     15 C          23.6863   31.9177   -0.4514 C.ar    1  UNL1        0.0747
     16 N          23.8158   33.2532   -1.1219 N.ar    1  UNL1       -0.3234
     17 C          22.4883   33.9337   -0.9638 C.ar    1  UNL1        0.0716
     18 C          21.5811   33.0098   -0.2066 C.ar    1  UNL1       -0.0035
     19 C          25.0071   33.8368   -1.8220 C.3     1  UNL1        0.1334
     20 C          26.3634   33.2288   -2.0244 C.3     1  UNL1        0.1970
     21 C          26.9149   29.5795   -0.5167 C.3     1  UNL1        0.1388
     22 C          20.1572   33.2883    0.1740 C.3     1  UNL1        0.0279
     23 C          19.3676   32.2600    0.9284 C.3     1  UNL1        0.0051
     24 C          22.7697   24.6045    1.8201 C.3     1  UNL1        0.1839
     25 O          22.3635   23.1606    1.8267 O.3     1  UNL1       -0.3775
     26 H          21.4019   23.0948    1.7176 H       1  UNL1        0.2106
     27 C          24.2143   24.9779    1.9738 C.3     1  UNL1        0.1339
     28 N          25.2860   23.9877    1.6259 N.4     1  UNL1        0.2597
     29 H          24.8413   23.0702    1.5981 H       1  UNL1        0.2040
     30 H          25.9925   24.1448    2.3446 H       1  UNL1        0.2040
     31 C          26.0563   24.1345    0.3471 C.3     1  UNL1        0.1299
     32 C          25.9444   23.0866   -0.7203 C.ar    1  UNL1        0.0356
     33 C          25.1067   21.8645   -0.4866 C.ar    1  UNL1        0.0383
     34 C          24.9948   20.8166   -1.5541 C.ar    1  UNL1        0.1386
     35 C          25.7205   20.9909   -2.8552 C.ar    1  UNL1        0.0369
     36 C          26.5582   22.2131   -3.0889 C.ar    1  UNL1        0.0030
     37 C          26.6701   23.2609   -2.0214 C.ar    1  UNL1        0.0016
     38 O          24.1571   19.5945   -1.3204 O.3     1  UNL1       -0.4714
     39 C          22.9817   19.6573   -0.3907 C.3     1  UNL1        0.2525
     40 C          20.3532   25.4725    2.2164 C.3     1  UNL1        0.0486
     41 C          19.3710   24.6028    1.4890 C.ar    1  UNL1       -0.0204
     42 C          19.3166   24.6242   -0.0098 C.ar    1  UNL1       -0.0042
     43 C          18.3345   23.7546   -0.7372 C.ar    1  UNL1       -0.0003
     44 C          17.4067   22.8636    0.0343 C.ar    1  UNL1       -0.0000
     45 C          17.4610   22.8422    1.5331 C.ar    1  UNL1       -0.0003
     46 C          18.4432   23.7118    2.2605 C.ar    1  UNL1       -0.0042
@<TRIPOS>UNITY_ATOM_ATTR
28 1
charge 1
@<TRIPOS>BOND
     1     6     7    2
     2     6     8    2
     3     6     9    1
     4     9    10    1
     5    10    11   ar
     6    11    12   ar
     7    12    13   ar
     8    13    14   ar
     9    14    15   ar
    10    15    16   ar
    11    16    17   ar
    12    17    18   ar
    13    18    22    1
    14    22    23    1
    15    16    19    1
    16    19    20    1
    17    12     2    1
    18     2     3    2
    19     2     4   am
    20     4     1    1
    21     1    24    1
    22    24    25    1
    23    24    27    1
    24    27    28    1
    25    28    31    1
    26    31    32    1
    27    32    33   ar
    28    33    34   ar
    29    34    38    1
    30    38    39    1
    31    34    35   ar
    32    35    36   ar
    33    36    37   ar
    34     1    40    1
    35    40    41    1
    36    41    42   ar
    37    42    43   ar
    38    43    44   ar
    39    44    45   ar
    40    45    46   ar
    41     9    21    1
    42    20     6    1
    43    37    32   ar
    44    46    41   ar
    45    15    10   ar
    46    18    14   ar
    47     4     5    1
    48    25    26    1
    49    28    29    1
    50    28    30    1
@<TRIPOS>MOLECULE
*****
 46 50 0 0 0
SMALL
GASTEIGER

@<TRIPOS>ATOM
      1 C          21.9107   25.6806    1.5588 C.3     1  UNL1        0.1089
      2 C          22.9808   28.0421    1.3901 C.2     1  UNL1        0.2459
      3 O          23.2475   28.0266    2.8660 O.2     1  UNL1       -0.2701
      4 N          22.3123   26.8690    0.7364 N.am    1  UNL1       -0.2995
      5 H          22.1372   26.8792   -0.2323 H       1  UNL1        0.1498
      6 S          22.1445   34.2323   -0.5268 S.O2    1  UNL1        0.0590
      7 O          20.9620   34.3210    0.3917 O.2     1  UNL1       -0.1542
      8 O          21.6680   35.6398   -0.7313 O.2     1  UNL1       -0.1542
      9 N          22.0949   32.8642    0.0863 N.pl3   1  UNL1       -0.1911
     10 C          23.0033   31.6960   -0.1586 C.ar    1  UNL1        0.0843
     11 C          22.6016   30.5076    0.6638 C.ar    1  UNL1        0.0221
     12 C          23.3824   29.2305    0.5676 C.ar    1  UNL1        0.0547
     13 C          24.5649   29.1418   -0.3509 C.ar    1  UNL1        0.0058
     14 C          24.9666   30.3302   -1.1733 C.ar    1  UNL1        0.0147
     15 C          24.1858   31.6072   -1.0772 C.ar    1  UNL1        0.0747
     16 N          24.7519   32.6649   -1.9777 N.ar    1  UNL1       -0.3234
     17 C          25.9291   32.0429   -2.6687 C.ar    1  UNL1        0.0716
     18 C          26.0591   30.6301   -2.1819 C.ar    1  UNL1       -0.0035
     19 C          24.2754   34.0724   -2.1821 C.3     1  UNL1        0.1334
     20 C          23.1150   34.7700   -1.5364 C.3     1  UNL1        0.1970
     21 C          20.9907   32.6340    1.0752 C.3     1  UNL1        0.1388
     22 C          27.1026   29.6420   -2.6115 C.3     1  UNL1        0.0279
     23 C          27.6137   29.6563   -4.0217 C.3     1  UNL1        0.0051
     24 C          22.8900   24.5704    1.8007 C.3     1  UNL1        0.1839
     25 O          22.4131   23.1495    1.8602 O.3     1  UNL1       -0.3775
     26 H          21.4531   23.1246    1.7237 H       1  UNL1        0.2106
     27 C          24.3460   24.8812    1.9832 C.3     1  UNL1        0.1339
     28 N          25.3835   23.8732    1.5862 N.4     1  UNL1        0.2597
     29 H          24.9193   22.9651    1.5664 H       1  UNL1        0.2040
     30 H          26.1193   24.0087    2.2794 H       1  UNL1        0.2040
     31 C          26.1086   24.0174    0.2810 C.3     1  UNL1        0.1299
     32 C          25.9437   22.9776   -0.7874 C.ar    1  UNL1        0.0356
     33 C          25.1180   21.7539   -0.5219 C.ar    1  UNL1        0.0383
     34 C          24.9531   20.7140   -1.5904 C.ar    1  UNL1        0.1386
     35 C          25.6140   20.8979   -2.9243 C.ar    1  UNL1        0.0369
     36 C          26.4397   22.1218   -3.1898 C.ar    1  UNL1        0.0030
     37 C          26.6046   23.1616   -2.1214 C.ar    1  UNL1        0.0016
     38 O          24.1274   19.4902   -1.3248 O.3     1  UNL1       -0.4714
     39 C          23.4129   18.8081   -2.4536 C.3     1  UNL1        0.2525
     40 C          20.5297   25.6023    2.1392 C.3     1  UNL1        0.0486
     41 C          19.4907   24.7377    1.4888 C.ar    1  UNL1       -0.0204
     42 C          18.5596   23.9198    2.3338 C.ar    1  UNL1       -0.0042
     43 C          17.5207   23.0552    1.6835 C.ar    1  UNL1       -0.0003
     44 C          17.4128   23.0085    0.1882 C.ar    1  UNL1       -0.0000
     45 C          18.3439   23.8264   -0.6569 C.ar    1  UNL1       -0.0003
     46 C          19.3828   24.6910   -0.0066 C.ar    1  UNL1       -0.0042
@<TRIPOS>UNITY_ATOM_ATTR
28 1
charge 1
@<TRIPOS>BOND
     1     6     7    2
     2     6     8    2
     3     6     9    1
     4     9    10    1
     5    10    11   ar
     6    11    12   ar
     7    12    13   ar
     8    13    14   ar
     9    14    15   ar
    10    15    16   ar
    11    16    17   ar
    12    17    18   ar
    13    18    22    1
    14    22    23    1
    15    16    19    1
    16    19    20    1
    17    12     2    1
    18     2     3    2
    19     2     4   am
    20     4     1    1
    21     1    24    1
    22    24    25    1
    23    24    27    1
    24    27    28    1
    25    28    31    1
    26    31    32    1
    27    32    33   ar
    28    33    34   ar
    29    34    38    1
    30    38    39    1
    31    34    35   ar
    32    35    36   ar
    33    36    37   ar
    34     1    40    1
    35    40    41    1
    36    41    42   ar
    37    42    43   ar
    38    43    44   ar
    39    44    45   ar
    40    45    46   ar
    41     9    21    1
    42    20     6    1
    43    37    32   ar
    44    46    41   ar
    45    15    10   ar
    46    18    14   ar
    47     4     5    1
    48    25    26    1
    49    28    29    1
    50    28    30    1
@<TRIPOS>MOLECULE
*****
 46 50 0 0 0
SMALL
GASTEIGER

@<TRIPOS>ATOM
      1 C          22.5583   33.1984   -0.4387 C.3     1  UNL1        0.1089
      2 C          22.3025   30.8602    0.6647 C.2     1  UNL1        0.2459
      3 O          21.0243   31.3052    1.3114 O.2     1  UNL1       -0.2701
      4 N          23.0694   31.8068   -0.2103 N.am    1  UNL1       -0.2995
      5 H          23.9084   31.5147   -0.6348 H       1  UNL1        0.1498
      6 S          26.9761   26.3198    0.1807 S.O2    1  UNL1        0.0590
      7 O          27.8468   27.3372   -0.4951 O.2     1  UNL1       -0.1542
      8 O          28.2354   25.5522   -0.0930 O.2     1  UNL1       -0.1542
      9 N          26.1042   27.5400    0.1537 N.pl3   1  UNL1       -0.1911
     10 C          24.7068   27.7028    0.6740 C.ar    1  UNL1        0.0843
     11 C          24.1956   29.0944    0.4456 C.ar    1  UNL1        0.0221
     12 C          22.8137   29.4686    0.8931 C.ar    1  UNL1        0.0547
     13 C          21.9430   28.4512    1.5689 C.ar    1  UNL1        0.0058
     14 C          22.4541   27.0596    1.7973 C.ar    1  UNL1        0.0147
     15 C          23.8360   26.6855    1.3498 C.ar    1  UNL1        0.0747
     16 N          24.1477   25.2541    1.6723 N.ar    1  UNL1       -0.3234
     17 C          22.9275   24.6993    2.3456 C.ar    1  UNL1        0.0716
     18 C          21.9026   25.7920    2.4213 C.ar    1  UNL1       -0.0035
     19 C          25.4070   24.4865    1.3986 C.3     1  UNL1        0.1334
     20 C          26.6658   24.9608    0.7348 C.3     1  UNL1        0.1970
     21 C          26.7099   28.7588   -0.4770 C.3     1  UNL1        0.1388
     22 C          20.5317   25.6751    3.0186 C.3     1  UNL1        0.0279
     23 C          19.3224   25.7010    2.1315 C.3     1  UNL1        0.0051
     24 C          21.7813   33.5175   -1.6815 C.3     1  UNL1        0.1839
     25 O          20.2844   33.5994   -1.6299 O.3     1  UNL1       -0.3775
     26 H          19.9819   33.4212   -0.7257 H       1  UNL1        0.2106
     27 C          22.5012   33.7546   -2.9759 C.3     1  UNL1        0.1339
     28 N          22.9887   32.5909   -3.7870 N.4     1  UNL1        0.2597
     29 H          22.9286   32.8690   -4.7666 H       1  UNL1        0.2040
     30 H          22.3906   31.8240   -3.4798 H       1  UNL1        0.2040
     31 C          24.3735   32.0552   -3.5731 C.3     1  UNL1        0.1299
     32 C          25.4933   32.9897   -3.2230 C.ar    1  UNL1        0.0356
     33 C          26.1965   32.8569   -1.9047 C.ar    1  UNL1        0.0383
     34 C          27.3164   33.7914   -1.5545 C.ar    1  UNL1        0.1386
     35 C          27.7331   34.8586   -2.5227 C.ar    1  UNL1        0.0369
     36 C          27.0299   34.9914   -3.8410 C.ar    1  UNL1        0.0030
     37 C          25.9101   34.0569   -4.1912 C.ar    1  UNL1        0.0016
     38 O          28.0195   33.6586   -0.2362 O.3     1  UNL1       -0.4714
     39 C          28.6938   34.8497    0.3775 C.3     1  UNL1        0.2525
     40 C          22.8240   34.2709    0.5757 C.3     1  UNL1        0.0486
     41 C          23.3966   35.5879    0.1423 C.ar    1  UNL1       -0.0204
     42 C          22.4834   36.6979   -0.2867 C.ar    1  UNL1       -0.0042
     43 C          23.0559   38.0149   -0.7201 C.ar    1  UNL1       -0.0003
     44 C          24.5415   38.2218   -0.7246 C.ar    1  UNL1       -0.0000
     45 C          25.4547   37.1118   -0.2957 C.ar    1  UNL1       -0.0003
     46 C          24.8822   35.7948    0.1378 C.ar    1  UNL1       -0.0042
@<TRIPOS>UNITY_ATOM_ATTR
28 1
charge 1
@<TRIPOS>BOND
     1     6     7    2
     2     6     8    2
     3     6     9    1
     4     9    10    1
     5    10    11   ar
     6    11    12   ar
     7    12    13   ar
     8    13    14   ar
     9    14    15   ar
    10    15    16   ar
    11    16    17   ar
    12    17    18   ar
    13    18    22    1
    14    22    23    1
    15    16    19    1
    16    19    20    1
    17    12     2    1
    18     2     3    2
    19     2     4   am
    20     4     1    1
    21     1    24    1
    22    24    25    1
    23    24    27    1
    24    27    28    1
    25    28    31    1
    26    31    32    1
    27    32    33   ar
    28    33    34   ar
    29    34    38    1
    30    38    39    1
    31    34    35   ar
    32    35    36   ar
    33    36    37   ar
    34     1    40    1
    35    40    41    1
    36    41    42   ar
    37    42    43   ar
    38    43    44   ar
    39    44    45   ar
    40    45    46   ar
    41     9    21    1
    42    20     6    1
    43    37    32   ar
    44    46    41   ar
    45    15    10   ar
    46    18    14   ar
    47     4     5    1
    48    25    26    1
    49    28    29    1
    50    28    30    1
