@<TRIPOS>MOLECULE
*****
 42 46 0 0 0
SMALL
GASTEIGER

@<TRIPOS>ATOM
      1 S           1.3515   -3.9342    0.0000 S.O2    1  UNL1        0.0590
      2 O           2.8515   -3.9342    0.0000 O.2     1  UNL1       -0.1542
      3 O           1.6852   -5.3966    0.0000 O.2     1  UNL1       -0.1542
      4 N           1.6852   -2.4718    0.0000 N.pl3   1  UNL1       -0.1911
      5 C           0.7500   -1.2990    0.0000 C.ar    1  UNL1        0.0843
      6 C           1.5000    0.0000    0.0000 C.ar    1  UNL1        0.0222
      7 C           0.7500    1.2990    0.0000 C.ar    1  UNL1        0.0564
      8 C          -0.7500    1.2990    0.0000 C.ar    1  UNL1        0.0058
      9 C          -1.5000    0.0000    0.0000 C.ar    1  UNL1        0.0147
     10 C          -0.7500   -1.2990    0.0000 C.ar    1  UNL1        0.0747
     11 N          -1.6852   -2.4718    0.0000 N.ar    1  UNL1       -0.3234
     12 C          -3.0732   -1.9029    0.0000 C.ar    1  UNL1        0.0716
     13 C          -2.9611   -0.4071    0.0000 C.ar    1  UNL1       -0.0035
     14 C          -4.1053    0.5628    0.0000 C.3     1  UNL1        0.0279
     15 C          -5.5174    0.0568    0.0000 C.3     1  UNL1        0.0051
     16 C          -1.3515   -3.9342    0.0000 C.3     1  UNL1        0.1334
     17 C          -0.0000   -4.5850    0.0000 C.3     1  UNL1        0.1970
     18 C           1.5000    2.5981    0.0000 C.2     1  UNL1        0.2649
     19 O           0.7500    3.8971    0.0000 O.2     1  UNL1       -0.2684
     20 N           3.0000    2.5981    0.0000 N.am    1  UNL1       -0.2002
     21 C           3.7500    3.8971    0.0000 C.3     1  UNL1        0.1364
     22 C           3.0000    5.1962    0.0000 C.3     1  UNL1        0.2342
     23 O           1.5000    5.1962    0.0000 O.3     1  UNL1       -0.2146
     24 C           3.7500    6.4952    0.0000 C.3     1  UNL1        0.2361
     25 N           3.0000    7.7942    0.0000 N.4     1  UNL1        0.4541
     26 C           3.7500    9.0933    0.0000 C.3     1  UNL1        0.2286
     27 C           3.0000   10.3923    0.0000 C.ar    1  UNL1        0.0432
     28 C           3.7500   11.6913    0.0000 C.ar    1  UNL1        0.0385
     29 C           3.0000   12.9904    0.0000 C.ar    1  UNL1        0.1386
     30 O           3.7500   14.2894    0.0000 O.3     1  UNL1       -0.4714
     31 C           5.2500   14.2894    0.0000 C.3     1  UNL1        0.2525
     32 C           1.5000   12.9904    0.0000 C.ar    1  UNL1        0.0369
     33 C           0.7500   11.6913    0.0000 C.ar    1  UNL1        0.0030
     34 C           1.5000   10.3923    0.0000 C.ar    1  UNL1        0.0018
     35 C           5.2500    3.8971    0.0000 C.3     1  UNL1        0.0508
     36 C           6.0000    5.1962    0.0000 C.ar    1  UNL1       -0.0204
     37 C           7.5000    5.1962    0.0000 C.ar    1  UNL1       -0.0042
     38 C           8.2500    6.4952    0.0000 C.ar    1  UNL1       -0.0003
     39 C           7.5000    7.7942    0.0000 C.ar    1  UNL1       -0.0000
     40 C           6.0000    7.7942    0.0000 C.ar    1  UNL1       -0.0003
     41 C           5.2500    6.4952    0.0000 C.ar    1  UNL1       -0.0042
     42 C           3.1476   -2.1380    0.0000 C.3     1  UNL1        0.1388
@<TRIPOS>UNITY_ATOM_ATTR
25 1
charge 1
@<TRIPOS>BOND
     1     1     2    2
     2     1     3    2
     3     1     4    1
     4     4     5    1
     5     5     6   ar
     6     6     7   ar
     7     7     8   ar
     8     8     9   ar
     9     9    10   ar
    10    10    11   ar
    11    11    12   ar
    12    12    13   ar
    13    13    14    1
    14    14    15    1
    15    11    16    1
    16    16    17    1
    17     7    18    1
    18    18    19    2
    19    18    20   am
    20    20    21    1
    21    21    22    1
    22    22    23    1
    23    22    24    1
    24    24    25    1
    25    25    26    1
    26    26    27    1
    27    27    28   ar
    28    28    29   ar
    29    29    30    1
    30    30    31    1
    31    29    32   ar
    32    32    33   ar
    33    33    34   ar
    34    21    35    1
    35    35    36    1
    36    36    37   ar
    37    37    38   ar
    38    38    39   ar
    39    39    40   ar
    40    40    41   ar
    41     4    42    1
    42    17     1    1
    43    34    27   ar
    44    41    36   ar
    45    10     5   ar
    46    13     9   ar
